
 OpenBabel05232313403D

 32 34  0  0  0  0  0  0  0  0999 V2000
   -3.4664   -2.0549   -2.1670 O   0  0  0  0  0  0  0  0  0  0  0  0
   -2.6313   -1.1965   -1.8086 C   0  0  0  0  0  0  0  0  0  0  0  0
   -1.6709   -0.7306   -2.6231 N   0  0  0  0  0  0  0  0  0  0  0  0
   -0.8039    0.1758   -2.2112 N   0  0  0  0  0  0  0  0  0  0  0  0
   -0.8219    0.6954   -0.9462 C   0  0  0  0  0  0  0  0  0  0  0  0
    0.2228    1.6407   -0.5611 C   0  0  0  0  0  0  0  0  0  0  0  0
    1.4143    0.9833    0.0994 C   0  0  0  0  0  0  0  0  0  0  0  0
    1.6592    0.9774    1.4261 C   0  0  0  0  0  0  0  0  0  0  0  0
    2.7912    0.3308    1.9309 C   0  0  0  0  0  0  0  0  0  0  0  0
    3.6652   -0.3039    1.0808 C   0  0  0  0  0  0  0  0  0  0  0  0
    3.4426   -0.3133   -0.2687 C   0  0  0  0  0  0  0  0  0  0  0  0
    4.3564   -0.9734   -1.1665 N   0  3  0  0  0  0  0  0  0  0  0  0
    5.3494   -1.5218   -0.6651 O   0  0  0  0  0  0  0  0  0  0  0  0
    4.1875   -1.0215   -2.5180 O   0  5  0  0  0  0  0  0  0  0  0  0
    2.3270    0.3258   -0.7422 C   0  0  0  0  0  0  0  0  0  0  0  0
   -1.7925    0.2350   -0.1055 C   0  0  0  0  0  0  0  0  0  0  0  0
   -1.8791    0.7367    1.1801 C   0  0  0  0  0  0  0  0  0  0  0  0
   -2.8509    0.3124    2.0576 C   0  0  0  0  0  0  0  0  0  0  0  0
   -3.7667   -0.6353    1.6559 C   0  0  0  0  0  0  0  0  0  0  0  0
   -3.6824   -1.1381    0.3652 C   0  0  0  0  0  0  0  0  0  0  0  0
   -2.7190   -0.7240   -0.5217 C   0  0  0  0  0  0  0  0  0  0  0  0
   -1.6432   -1.1223   -3.6035 H   0  0  0  0  0  0  0  0  0  0  0  0
    0.6490    2.0832   -1.5104 H   0  0  0  0  0  0  0  0  0  0  0  0
   -0.1204    2.5282    0.0060 H   0  0  0  0  0  0  0  0  0  0  0  0
    1.0184    1.4650    2.1251 H   0  0  0  0  0  0  0  0  0  0  0  0
    2.9867    0.3269    2.9922 H   0  0  0  0  0  0  0  0  0  0  0  0
    4.5642   -0.8208    1.4436 H   0  0  0  0  0  0  0  0  0  0  0  0
    2.1298    0.3323   -1.8093 H   0  0  0  0  0  0  0  0  0  0  0  0
   -1.1535    1.4954    1.4411 H   0  0  0  0  0  0  0  0  0  0  0  0
   -2.8595    0.7471    3.0506 H   0  0  0  0  0  0  0  0  0  0  0  0
   -4.5204   -0.9550    2.3586 H   0  0  0  0  0  0  0  0  0  0  0  0
   -4.3818   -1.8802    0.0149 H   0  0  0  0  0  0  0  0  0  0  0  0
  1  2  2  0  0  0  0
  2  3  1  0  0  0  0
  3  4  1  0  0  0  0
  3 22  1  0  0  0  0
  4  5  2  0  0  0  0
  5  6  1  0  0  0  0
  5 16  1  0  0  0  0
  6  7  1  0  0  0  0
  6 23  1  0  0  0  0
  6 24  1  0  0  0  0
  7  8  2  0  0  0  0
  8  9  1  0  0  0  0
  8 25  1  0  0  0  0
  9 10  2  0  0  0  0
  9 26  1  0  0  0  0
 10 11  1  0  0  0  0
 10 27  1  0  0  0  0
 11 12  1  0  0  0  0
 11 15  2  0  0  0  0
 12 13  2  0  0  0  0
 12 14  1  0  0  0  0
 15  7  1  0  0  0  0
 15 28  1  0  0  0  0
 16 17  2  0  0  0  0
 17 18  1  0  0  0  0
 17 29  1  0  0  0  0
 18 19  2  0  0  0  0
 18 30  1  0  0  0  0
 19 20  1  0  0  0  0
 19 31  1  0  0  0  0
 20 21  2  0  0  0  0
 20 32  1  0  0  0  0
 21  2  1  0  0  0  0
 21 16  1  0  0  0  0
M  CHG  2  12   1  14  -1
M  END
$$$$
