
 OpenBabel05232313403D

 33 35  0  0  0  0  0  0  0  0999 V2000
    0.5622   -0.9087   -1.4336 O   0  0  0  0  0  0  0  0  0  0  0  0
    0.8638   -0.5173   -0.2725 C   0  0  0  0  0  0  0  0  0  0  0  0
   -0.0968   -0.6044    0.6899 O   0  0  0  0  0  0  0  0  0  0  0  0
   -1.3726   -1.0755    0.5391 C   0  0  0  0  0  0  0  0  0  0  0  0
   -1.7527   -2.3880    0.7120 C   0  0  0  0  0  0  0  0  0  0  0  0
   -3.0682   -2.8034    0.5435 C   0  0  0  0  0  0  0  0  0  0  0  0
   -4.0259   -1.8786    0.1927 C   0  0  0  0  0  0  0  0  0  0  0  0
   -3.6880   -0.5562    0.0101 C   0  0  0  0  0  0  0  0  0  0  0  0
   -4.6277    0.4028   -0.3437 C   0  0  0  0  0  0  0  0  0  0  0  0
   -4.2811    1.7263   -0.5249 C   0  0  0  0  0  0  0  0  0  0  0  0
   -2.9739    2.1165   -0.3532 C   0  0  0  0  0  0  0  0  0  0  0  0
   -2.0447    1.1615   -0.0022 C   0  0  0  0  0  0  0  0  0  0  0  0
   -2.3576   -0.1744    0.1877 C   0  0  0  0  0  0  0  0  0  0  0  0
    2.2107   -0.0052   -0.0541 C   0  0  0  0  0  0  0  0  0  0  0  0
    2.5970    0.4362    1.1921 C   0  0  0  0  0  0  0  0  0  0  0  0
    3.8712    0.9288    1.4313 C   0  0  0  0  0  0  0  0  0  0  0  0
    4.7972    0.9915    0.4187 C   0  0  0  0  0  0  0  0  0  0  0  0
    4.4300    0.5543   -0.8373 C   0  0  0  0  0  0  0  0  0  0  0  0
    5.3693    0.6081   -1.9044 N   0  3  0  0  0  0  0  0  0  0  0  0
    6.5062    1.0381   -1.7290 O   0  0  0  0  0  0  0  0  0  0  0  0
    4.9898    0.1698   -3.1481 O   0  5  0  0  0  0  0  0  0  0  0  0
    3.1463    0.0620   -1.0621 C   0  0  0  0  0  0  0  0  0  0  0  0
   -0.9957   -3.0978    0.9854 H   0  0  0  0  0  0  0  0  0  0  0  0
   -3.2715   -3.8523    0.7004 H   0  0  0  0  0  0  0  0  0  0  0  0
   -5.0491   -2.1832    0.0582 H   0  0  0  0  0  0  0  0  0  0  0  0
   -5.6455    0.0734   -0.4726 H   0  0  0  0  0  0  0  0  0  0  0  0
   -5.0848    2.3985   -0.8000 H   0  0  0  0  0  0  0  0  0  0  0  0
   -2.7432    3.1599   -0.5040 H   0  0  0  0  0  0  0  0  0  0  0  0
   -1.0236    1.4536    0.1344 H   0  0  0  0  0  0  0  0  0  0  0  0
    1.8943    0.3984    2.0001 H   0  0  0  0  0  0  0  0  0  0  0  0
    4.1836    1.2776    2.4067 H   0  0  0  0  0  0  0  0  0  0  0  0
    5.8018    1.3653    0.5484 H   0  0  0  0  0  0  0  0  0  0  0  0
    2.8794   -0.2774   -2.0616 H   0  0  0  0  0  0  0  0  0  0  0  0
  1  2  2  0  0  0  0
  2  3  1  0  0  0  0
  2 14  1  0  0  0  0
  3  4  1  0  0  0  0
  4  5  2  0  0  0  0
  5  6  1  0  0  0  0
  5 23  1  0  0  0  0
  6  7  2  0  0  0  0
  6 24  1  0  0  0  0
  7  8  1  0  0  0  0
  7 25  1  0  0  0  0
  8  9  2  0  0  0  0
  9 10  1  0  0  0  0
  9 26  1  0  0  0  0
 10 11  2  0  0  0  0
 10 27  1  0  0  0  0
 11 12  1  0  0  0  0
 11 28  1  0  0  0  0
 12 13  2  0  0  0  0
 12 29  1  0  0  0  0
 13  4  1  0  0  0  0
 13  8  1  0  0  0  0
 14 15  2  0  0  0  0
 15 16  1  0  0  0  0
 15 30  1  0  0  0  0
 16 17  2  0  0  0  0
 16 31  1  0  0  0  0
 17 18  1  0  0  0  0
 17 32  1  0  0  0  0
 18 19  1  0  0  0  0
 18 22  2  0  0  0  0
 19 20  2  0  0  0  0
 19 21  1  0  0  0  0
 22 14  1  0  0  0  0
 22 33  1  0  0  0  0
M  CHG  2  19   1  21  -1
M  END
$$$$
