
 OpenBabel05232313403D

 45 47  0  0  0  0  0  0  0  0999 V2000
   -7.2071   -1.8737   -0.5996 N   0  0  0  0  0  0  0  0  0  0  0  0
   -6.0391   -1.1536   -0.2507 C   0  0  0  0  0  0  0  0  0  0  0  0
   -4.8309   -1.5227   -0.7844 C   0  0  0  0  0  0  0  0  0  0  0  0
   -3.6760   -0.8055   -0.4353 C   0  0  0  0  0  0  0  0  0  0  0  0
   -3.7382    0.2535    0.4273 C   0  0  0  0  0  0  0  0  0  0  0  0
   -2.5864    1.0277    0.8228 C   0  0  0  0  0  0  0  0  0  0  0  0
   -2.7330    2.0018    1.6379 O   0  0  0  0  0  0  0  0  0  0  0  0
   -1.2610    0.7875    0.3651 N   0  0  0  0  0  0  0  0  0  0  0  0
   -0.1190    1.5854    0.7816 C   0  0  1  0  0  0  0  0  0  0  0  0
    0.8305    0.8500    1.5679 N   0  3  0  0  0  0  0  0  0  0  0  0
    0.4574    2.2604   -0.4157 C   0  0  0  0  0  0  0  0  0  0  0  0
    0.9585    1.4037   -1.5121 C   0  0  0  0  0  0  0  0  0  0  0  0
    2.0684    0.4912   -1.1725 C   0  0  0  0  0  0  0  0  0  0  0  0
    3.3401    0.9442   -1.2693 N   0  0  0  0  0  0  0  0  0  0  0  0
    4.3715    0.1318   -0.9857 C   0  0  0  0  0  0  0  0  0  0  0  0
    5.6795    0.6228   -1.0929 C   0  0  0  0  0  0  0  0  0  0  0  0
    6.7046   -0.2452   -0.7924 C   0  0  0  0  0  0  0  0  0  0  0  0
    6.4824   -1.5459   -0.4006 C   0  0  0  0  0  0  0  0  0  0  0  0
    5.1949   -2.0292   -0.2951 C   0  0  0  0  0  0  0  0  0  0  0  0
    4.1374   -1.1680   -0.5945 C   0  0  0  0  0  0  0  0  0  0  0  0
    2.8272   -1.6031   -0.5046 C   0  0  0  0  0  0  0  0  0  0  0  0
    2.6186   -2.8082   -0.1416 O   0  0  0  0  0  0  0  0  0  0  0  0
    1.8116   -0.7679   -0.7947 N   0  0  0  0  0  0  0  0  0  0  0  0
   -4.9703    0.5921    0.9413 C   0  0  0  0  0  0  0  0  0  0  0  0
   -6.1228   -0.1066    0.6065 C   0  0  0  0  0  0  0  0  0  0  0  0
   -8.1040   -1.3255   -0.6640 H   0  0  0  0  0  0  0  0  0  0  0  0
   -7.1762   -2.9074   -0.7850 H   0  0  0  0  0  0  0  0  0  0  0  0
   -4.7528   -2.3552   -1.4684 H   0  0  0  0  0  0  0  0  0  0  0  0
   -2.7234   -1.0873   -0.8487 H   0  0  0  0  0  0  0  0  0  0  0  0
   -1.1453   -0.0029   -0.3000 H   0  0  0  0  0  0  0  0  0  0  0  0
   -0.5685    2.3729    1.4612 H   0  0  0  0  0  0  0  0  0  0  0  0
    0.7566    1.1858    2.5734 H   0  0  0  0  0  0  0  0  0  0  0  0
    0.6247   -0.1725    1.6386 H   0  0  0  0  0  0  0  0  0  0  0  0
    1.7994    1.0800    1.2781 H   0  0  0  0  0  0  0  0  0  0  0  0
    1.3010    2.9322   -0.0863 H   0  0  0  0  0  0  0  0  0  0  0  0
   -0.2945    2.9742   -0.8698 H   0  0  0  0  0  0  0  0  0  0  0  0
    1.3606    2.0979   -2.3110 H   0  0  0  0  0  0  0  0  0  0  0  0
    0.1443    0.8515   -2.0480 H   0  0  0  0  0  0  0  0  0  0  0  0
    5.8493    1.6436   -1.4006 H   0  0  0  0  0  0  0  0  0  0  0  0
    7.7179    0.1654   -0.8848 H   0  0  0  0  0  0  0  0  0  0  0  0
    7.3367   -2.1888   -0.1749 H   0  0  0  0  0  0  0  0  0  0  0  0
    4.9834   -3.0443    0.0095 H   0  0  0  0  0  0  0  0  0  0  0  0
    0.8540   -1.1563   -0.7110 H   0  0  0  0  0  0  0  0  0  0  0  0
   -5.0910    1.4179    1.6282 H   0  0  0  0  0  0  0  0  0  0  0  0
   -7.0710    0.1963    1.0360 H   0  0  0  0  0  0  0  0  0  0  0  0
  1  2  1  0  0  0  0
  1 26  1  0  0  0  0
  1 27  1  0  0  0  0
  2  3  2  0  0  0  0
  3  4  1  0  0  0  0
  3 28  1  0  0  0  0
  4  5  2  0  0  0  0
  4 29  1  0  0  0  0
  5  6  1  0  0  0  0
  5 24  1  0  0  0  0
  6  7  2  0  0  0  0
  6  8  1  0  0  0  0
  8  9  1  0  0  0  0
  8 30  1  0  0  0  0
  9 10  1  0  0  0  0
  9 11  1  0  0  0  0
  9 31  1  1  0  0  0
 10 32  1  0  0  0  0
 10 33  1  0  0  0  0
 10 34  1  0  0  0  0
 11 12  1  0  0  0  0
 11 35  1  0  0  0  0
 11 36  1  0  0  0  0
 12 13  1  0  0  0  0
 12 37  1  0  0  0  0
 12 38  1  0  0  0  0
 13 14  2  0  0  0  0
 14 15  1  0  0  0  0
 15 16  2  0  0  0  0
 16 17  1  0  0  0  0
 16 39  1  0  0  0  0
 17 18  2  0  0  0  0
 17 40  1  0  0  0  0
 18 19  1  0  0  0  0
 18 41  1  0  0  0  0
 19 20  2  0  0  0  0
 19 42  1  0  0  0  0
 20 21  1  0  0  0  0
 20 15  1  0  0  0  0
 21 22  2  0  0  0  0
 21 23  1  0  0  0  0
 23 13  1  0  0  0  0
 23 43  1  0  0  0  0
 24 25  2  0  0  0  0
 24 44  1  0  0  0  0
 25  2  1  0  0  0  0
 25 45  1  0  0  0  0
M  CHG  1  10   1
M  END
$$$$
