
 OpenBabel05232313393D

 49 51  0  0  0  0  0  0  0  0999 V2000
    1.1205    0.8032   -0.7074 O   0  0  0  0  0  0  0  0  0  0  0  0
    1.3246   -0.0559    0.2041 C   0  0  0  0  0  0  0  0  0  0  0  0
    2.6085   -0.1296    0.7544 N   0  0  0  0  0  0  0  0  0  0  0  0
    3.7062    0.6866    0.3740 N   0  0  0  0  0  0  0  0  0  0  0  0
    4.8619    0.1392   -0.2129 C   0  0  0  0  0  0  0  0  0  0  0  0
    4.8465   -1.1172   -0.3735 O   0  0  0  0  0  0  0  0  0  0  0  0
    5.9796    0.9963   -0.5936 C   0  0  0  0  0  0  0  0  0  0  0  0
    5.9389    2.3555   -0.4128 C   0  0  0  0  0  0  0  0  0  0  0  0
    6.9628    3.2047   -0.7633 C   0  0  0  0  0  0  0  0  0  0  0  0
    8.0926    2.6910   -1.3243 C   0  0  0  0  0  0  0  0  0  0  0  0
    8.1895    1.3442   -1.5282 C   0  0  0  0  0  0  0  0  0  0  0  0
    7.1452    0.4745   -1.1706 C   0  0  0  0  0  0  0  0  0  0  0  0
    7.3220   -0.8453   -1.4050 O   0  0  0  0  0  0  0  0  0  0  0  0
    0.2305   -0.9314    0.6477 C   0  0  0  0  0  0  0  0  0  0  0  0
    0.3225   -1.6964    1.7869 C   0  0  0  0  0  0  0  0  0  0  0  0
   -0.7007   -2.5389    2.2165 C   0  0  0  0  0  0  0  0  0  0  0  0
   -1.8632   -2.6279    1.4858 C   0  0  0  0  0  0  0  0  0  0  0  0
   -1.9589   -1.8535    0.3307 C   0  0  0  0  0  0  0  0  0  0  0  0
   -3.4492   -1.9812   -0.5892 S   0  0  0  0  0  0  0  0  0  0  0  0
   -3.9473   -3.4072   -0.4059 O   0  0  0  0  0  0  0  0  0  0  0  0
   -3.1651   -1.8508   -2.0674 O   0  0  0  0  0  0  0  0  0  0  0  0
   -4.6274   -0.9032   -0.1407 N   0  0  0  0  0  0  0  0  0  0  0  0
   -4.2947    0.4488   -0.3066 C   0  0  0  0  0  0  0  0  0  0  0  0
   -5.1509    1.4461    0.4045 C   0  0  0  0  0  0  0  0  0  0  0  0
   -6.5995    1.1200    0.4113 C   0  0  0  0  0  0  0  0  0  0  0  0
   -6.9219   -0.1030   -0.3731 C   0  0  0  0  0  0  0  0  0  0  0  0
   -5.9696   -1.2609   -0.0349 C   0  0  0  0  0  0  0  0  0  0  0  0
   -0.9322   -1.0176   -0.0853 C   0  0  0  0  0  0  0  0  0  0  0  0
    2.8110   -0.8309    1.5037 H   0  0  0  0  0  0  0  0  0  0  0  0
    3.5689    1.6917    0.5651 H   0  0  0  0  0  0  0  0  0  0  0  0
    5.0735    2.8045    0.0243 H   0  0  0  0  0  0  0  0  0  0  0  0
    6.8479    4.2678   -0.5867 H   0  0  0  0  0  0  0  0  0  0  0  0
    8.8901    3.3859   -1.5946 H   0  0  0  0  0  0  0  0  0  0  0  0
    9.1068    0.9777   -1.9760 H   0  0  0  0  0  0  0  0  0  0  0  0
    6.8074   -1.6558   -1.2753 H   0  0  0  0  0  0  0  0  0  0  0  0
    1.2176   -1.6403    2.3763 H   0  0  0  0  0  0  0  0  0  0  0  0
   -0.6092   -3.1284    3.1130 H   0  0  0  0  0  0  0  0  0  0  0  0
   -2.6931   -3.2561    1.7583 H   0  0  0  0  0  0  0  0  0  0  0  0
   -4.3970    0.6908   -1.4108 H   0  0  0  0  0  0  0  0  0  0  0  0
   -3.2422    0.6583    0.0111 H   0  0  0  0  0  0  0  0  0  0  0  0
   -5.0376    2.4294   -0.1467 H   0  0  0  0  0  0  0  0  0  0  0  0
   -4.7720    1.6862    1.4271 H   0  0  0  0  0  0  0  0  0  0  0  0
   -7.2427    1.9405    0.0059 H   0  0  0  0  0  0  0  0  0  0  0  0
   -6.9208    1.0139    1.4714 H   0  0  0  0  0  0  0  0  0  0  0  0
   -7.9375   -0.4612   -0.0234 H   0  0  0  0  0  0  0  0  0  0  0  0
   -7.0134    0.0451   -1.4557 H   0  0  0  0  0  0  0  0  0  0  0  0
   -6.2347   -1.4956    1.0434 H   0  0  0  0  0  0  0  0  0  0  0  0
   -6.2594   -2.0934   -0.6995 H   0  0  0  0  0  0  0  0  0  0  0  0
   -1.0351   -0.4198   -0.9948 H   0  0  0  0  0  0  0  0  0  0  0  0
  1  2  2  0  0  0  0
  2  3  1  0  0  0  0
  2 14  1  0  0  0  0
  3  4  1  0  0  0  0
  3 29  1  0  0  0  0
  4  5  1  0  0  0  0
  4 30  1  0  0  0  0
  5  6  2  0  0  0  0
  5  7  1  0  0  0  0
  7  8  2  0  0  0  0
  8  9  1  0  0  0  0
  8 31  1  0  0  0  0
  9 10  2  0  0  0  0
  9 32  1  0  0  0  0
 10 11  1  0  0  0  0
 10 33  1  0  0  0  0
 11 12  2  0  0  0  0
 11 34  1  0  0  0  0
 12 13  1  0  0  0  0
 12  7  1  0  0  0  0
 13 35  1  0  0  0  0
 14 15  2  0  0  0  0
 15 16  1  0  0  0  0
 15 36  1  0  0  0  0
 16 17  2  0  0  0  0
 16 37  1  0  0  0  0
 17 18  1  0  0  0  0
 17 38  1  0  0  0  0
 18 19  1  0  0  0  0
 18 28  2  0  0  0  0
 19 20  2  0  0  0  0
 19 21  2  0  0  0  0
 19 22  1  0  0  0  0
 22 23  1  0  0  0  0
 23 24  1  0  0  0  0
 23 39  1  0  0  0  0
 23 40  1  0  0  0  0
 24 25  1  0  0  0  0
 24 41  1  0  0  0  0
 24 42  1  0  0  0  0
 25 26  1  0  0  0  0
 25 43  1  0  0  0  0
 25 44  1  0  0  0  0
 26 27  1  0  0  0  0
 26 45  1  0  0  0  0
 26 46  1  0  0  0  0
 27 22  1  0  0  0  0
 27 47  1  0  0  0  0
 27 48  1  0  0  0  0
 28 14  1  0  0  0  0
 28 49  1  0  0  0  0
M  END
$$$$
