
 OpenBabel05232313403D

 33 35  0  0  0  0  0  0  0  0999 V2000
   -2.0375   -2.1495   -0.0519 O   0  0  0  0  0  0  0  0  0  0  0  0
   -2.3573   -0.9497   -0.0322 C   0  0  0  0  0  0  0  0  0  0  0  0
   -1.2809    0.0779   -0.0134 C   0  0  0  0  0  0  0  0  0  0  0  0
    0.0088   -0.5520   -0.0223 O   0  0  0  0  0  0  0  0  0  0  0  0
    1.1770    0.1540   -0.0090 C   0  0  0  0  0  0  0  0  0  0  0  0
    1.1545    1.4009    0.0118 O   0  0  0  0  0  0  0  0  0  0  0  0
    2.5042   -0.5092   -0.0183 C   0  0  0  0  0  0  0  0  0  0  0  0
    2.7166   -1.8363   -0.0401 N   0  0  0  0  0  0  0  0  0  0  0  0
    3.9931   -2.0423   -0.0419 N   0  0  0  0  0  0  0  0  0  0  0  0
    4.6752   -0.8860   -0.0219 C   0  0  0  0  0  0  0  0  0  0  0  0
    6.0221   -0.5781   -0.0151 C   0  0  0  0  0  0  0  0  0  0  0  0
    6.3767    0.7485    0.0074 C   0  0  0  0  0  0  0  0  0  0  0  0
    5.4337    1.7610    0.0230 C   0  0  0  0  0  0  0  0  0  0  0  0
    4.0833    1.4600    0.0164 C   0  0  0  0  0  0  0  0  0  0  0  0
    3.7285    0.1067   -0.0065 C   0  0  0  0  0  0  0  0  0  0  0  0
   -3.7338   -0.4798   -0.0263 C   0  0  0  0  0  0  0  0  0  0  0  0
   -4.0633    0.8584   -0.0042 C   0  0  0  0  0  0  0  0  0  0  0  0
   -5.3633    1.2998    0.0013 C   0  0  0  0  0  0  0  0  0  0  0  0
   -6.4065    0.4129   -0.0152 C   0  0  0  0  0  0  0  0  0  0  0  0
   -7.6821    0.8298   -0.0101 F   0  0  0  0  0  0  0  0  0  0  0  0
   -6.1073   -0.9315   -0.0375 C   0  0  0  0  0  0  0  0  0  0  0  0
   -7.1266   -1.8105   -0.0538 F   0  0  0  0  0  0  0  0  0  0  0  0
   -4.7794   -1.3758   -0.0430 C   0  0  0  0  0  0  0  0  0  0  0  0
   -1.3276    0.6992   -0.9315 H   0  0  0  0  0  0  0  0  0  0  0  0
   -1.3687    0.7571    0.8506 H   0  0  0  0  0  0  0  0  0  0  0  0
    1.9062   -2.5234   -0.0526 H   0  0  0  0  0  0  0  0  0  0  0  0
    6.7322   -1.3917   -0.0277 H   0  0  0  0  0  0  0  0  0  0  0  0
    7.4472    0.9657    0.0123 H   0  0  0  0  0  0  0  0  0  0  0  0
    5.7388    2.8090    0.0408 H   0  0  0  0  0  0  0  0  0  0  0  0
    3.3163    2.2011    0.0277 H   0  0  0  0  0  0  0  0  0  0  0  0
   -3.2276    1.5606    0.0088 H   0  0  0  0  0  0  0  0  0  0  0  0
   -5.5657    2.3498    0.0187 H   0  0  0  0  0  0  0  0  0  0  0  0
   -4.5868   -2.4363   -0.0606 H   0  0  0  0  0  0  0  0  0  0  0  0
  1  2  2  0  0  0  0
  2  3  1  0  0  0  0
  2 16  1  0  0  0  0
  3  4  1  0  0  0  0
  3 24  1  0  0  0  0
  3 25  1  0  0  0  0
  4  5  1  0  0  0  0
  5  6  2  0  0  0  0
  5  7  1  0  0  0  0
  7  8  1  0  0  0  0
  8  9  1  0  0  0  0
  8 26  1  0  0  0  0
  9 10  2  0  0  0  0
 10 11  1  0  0  0  0
 11 12  2  0  0  0  0
 11 27  1  0  0  0  0
 12 13  1  0  0  0  0
 12 28  1  0  0  0  0
 13 14  2  0  0  0  0
 13 29  1  0  0  0  0
 14 15  1  0  0  0  0
 14 30  1  0  0  0  0
 15  7  2  0  0  0  0
 15 10  1  0  0  0  0
 16 17  2  0  0  0  0
 17 18  1  0  0  0  0
 17 31  1  0  0  0  0
 18 19  2  0  0  0  0
 18 32  1  0  0  0  0
 19 20  1  0  0  0  0
 19 21  1  0  0  0  0
 21 22  1  0  0  0  0
 21 23  2  0  0  0  0
 23 16  1  0  0  0  0
 23 33  1  0  0  0  0
M  END
$$$$
