
 OpenBabel05232313403D

 36 38  0  0  0  0  0  0  0  0999 V2000
    0.1983    1.9574   -0.1388 O   0  0  0  0  0  0  0  0  0  0  0  0
    0.0469    1.0576   -1.0005 C   0  0  0  0  0  0  0  0  0  0  0  0
    1.1656    0.8353   -1.8635 N   0  0  0  0  0  0  0  0  0  0  0  0
    2.3476    1.5938   -1.6689 N   0  0  0  0  0  0  0  0  0  0  0  0
    3.2774    1.1295   -0.6990 C   0  0  0  0  0  0  0  0  0  0  0  0
    3.8447    2.0007    0.1931 C   0  0  0  0  0  0  0  0  0  0  0  0
    4.7093    1.4647    1.1258 C   0  0  0  0  0  0  0  0  0  0  0  0
    5.0013    0.1154    1.1713 C   0  0  0  0  0  0  0  0  0  0  0  0
    4.4400   -0.7755    0.2796 C   0  0  0  0  0  0  0  0  0  0  0  0
    4.7252   -2.1783    0.3124 N   0  3  0  0  0  0  0  0  0  0  0  0
    4.2242   -2.9843   -0.4830 O   0  0  0  0  0  0  0  0  0  0  0  0
    5.5908   -2.6242    1.2581 O   0  5  0  0  0  0  0  0  0  0  0  0
    3.5762   -0.2387   -0.6523 C   0  0  0  0  0  0  0  0  0  0  0  0
   -1.1780    0.2802   -1.1281 C   0  0  0  0  0  0  0  0  0  0  0  0
   -1.2395   -0.6879   -1.9661 O   0  0  0  0  0  0  0  0  0  0  0  0
   -2.3811    0.5173   -0.3457 C   0  0  0  0  0  0  0  0  0  0  0  0
   -2.9068    1.7102    0.1362 C   0  0  0  0  0  0  0  0  0  0  0  0
   -4.0784    1.4789    0.7604 N   0  0  0  0  0  0  0  0  0  0  0  0
   -4.3551    0.1633    0.7133 C   0  0  0  0  0  0  0  0  0  0  0  0
   -5.3793   -0.6448    1.1783 C   0  0  0  0  0  0  0  0  0  0  0  0
   -5.4182   -1.9955    1.0069 C   0  0  0  0  0  0  0  0  0  0  0  0
   -4.3641   -2.5995    0.3205 C   0  0  0  0  0  0  0  0  0  0  0  0
   -3.3398   -1.7982   -0.1486 C   0  0  0  0  0  0  0  0  0  0  0  0
   -3.3153   -0.4462    0.0312 C   0  0  0  0  0  0  0  0  0  0  0  0
    1.0778    0.1209   -2.6149 H   0  0  0  0  0  0  0  0  0  0  0  0
    2.5115    2.4296   -2.2053 H   0  0  0  0  0  0  0  0  0  0  0  0
    3.6475    3.0671    0.1978 H   0  0  0  0  0  0  0  0  0  0  0  0
    5.1824    2.1113    1.8691 H   0  0  0  0  0  0  0  0  0  0  0  0
    5.6841   -0.3309    1.9071 H   0  0  0  0  0  0  0  0  0  0  0  0
    3.1281   -0.9182   -1.3630 H   0  0  0  0  0  0  0  0  0  0  0  0
   -2.4447    2.6858    0.0209 H   0  0  0  0  0  0  0  0  0  0  0  0
   -4.7164    2.1636    1.2269 H   0  0  0  0  0  0  0  0  0  0  0  0
   -6.1892   -0.1400    1.7063 H   0  0  0  0  0  0  0  0  0  0  0  0
   -6.2327   -2.6093    1.3794 H   0  0  0  0  0  0  0  0  0  0  0  0
   -4.3453   -3.6602    0.1682 H   0  0  0  0  0  0  0  0  0  0  0  0
   -2.4952   -2.2509   -0.6850 H   0  0  0  0  0  0  0  0  0  0  0  0
  1  2  2  0  0  0  0
  2  3  1  0  0  0  0
  2 14  1  0  0  0  0
  3  4  1  0  0  0  0
  3 25  1  0  0  0  0
  4  5  1  0  0  0  0
  4 26  1  0  0  0  0
  5  6  2  0  0  0  0
  6  7  1  0  0  0  0
  6 27  1  0  0  0  0
  7  8  2  0  0  0  0
  7 28  1  0  0  0  0
  8  9  1  0  0  0  0
  8 29  1  0  0  0  0
  9 10  1  0  0  0  0
  9 13  2  0  0  0  0
 10 11  2  0  0  0  0
 10 12  1  0  0  0  0
 13  5  1  0  0  0  0
 13 30  1  0  0  0  0
 14 15  2  0  0  0  0
 14 16  1  0  0  0  0
 16 17  2  0  0  0  0
 17 18  1  0  0  0  0
 17 31  1  0  0  0  0
 18 19  1  0  0  0  0
 18 32  1  0  0  0  0
 19 20  2  0  0  0  0
 20 21  1  0  0  0  0
 20 33  1  0  0  0  0
 21 22  2  0  0  0  0
 21 34  1  0  0  0  0
 22 23  1  0  0  0  0
 22 35  1  0  0  0  0
 23 24  2  0  0  0  0
 23 36  1  0  0  0  0
 24 16  1  0  0  0  0
 24 19  1  0  0  0  0
M  CHG  2  10   1  12  -1
M  END
$$$$
