
 OpenBabel05232313393D

 43 45  0  0  0  0  0  0  0  0999 V2000
    5.0485   -2.3063   -2.0879 C   0  0  0  0  0  0  0  0  0  0  0  0
    4.4199   -1.3793   -1.1528 N   0  0  0  0  0  0  0  0  0  0  0  0
    3.2969   -1.7781   -0.5648 N   0  0  0  0  0  0  0  0  0  0  0  0
    2.6281   -1.0158    0.3127 C   0  0  0  0  0  0  0  0  0  0  0  0
    1.3766   -1.4729    0.9643 C   0  0  0  0  0  0  0  0  0  0  0  0
    0.2387   -0.7604    0.3004 C   0  0  0  0  0  0  0  0  0  0  0  0
    0.4126    0.0605   -0.6372 O   0  0  0  0  0  0  0  0  0  0  0  0
   -1.0866   -1.0262    0.7517 N   0  0  0  0  0  0  0  0  0  0  0  0
   -2.1892   -0.3325    0.1057 C   0  0  0  0  0  0  0  0  0  0  0  0
   -3.4847   -0.7927    0.7718 C   0  0  0  0  0  0  0  0  0  0  0  0
   -4.5854   -0.0698    0.0958 C   0  0  0  0  0  0  0  0  0  0  0  0
   -5.1899    0.9860    0.7230 C   0  0  0  0  0  0  0  0  0  0  0  0
   -6.2278    1.6956    0.1279 C   0  0  0  0  0  0  0  0  0  0  0  0
   -6.6321    1.2952   -1.1299 C   0  0  0  0  0  0  0  0  0  0  0  0
   -6.0251    0.2343   -1.7610 C   0  0  0  0  0  0  0  0  0  0  0  0
   -4.9934   -0.4579   -1.1493 C   0  0  0  0  0  0  0  0  0  0  0  0
   -4.3649   -1.5086   -1.7301 F   0  0  0  0  0  0  0  0  0  0  0  0
    3.1223    0.2328    0.6199 C   0  0  0  0  0  0  0  0  0  0  0  0
    2.4868    1.0621    1.5088 C   0  0  0  0  0  0  0  0  0  0  0  0
    2.9995    2.3105    1.8026 C   0  0  0  0  0  0  0  0  0  0  0  0
    4.1594    2.7095    1.1884 C   0  0  0  0  0  0  0  0  0  0  0  0
    4.8353    1.9087    0.2858 C   0  0  0  0  0  0  0  0  0  0  0  0
    4.2865    0.6690    0.0222 C   0  0  0  0  0  0  0  0  0  0  0  0
    4.9173   -0.1714   -0.8694 C   0  0  0  0  0  0  0  0  0  0  0  0
    5.9810    0.1975   -1.4310 O   0  0  0  0  0  0  0  0  0  0  0  0
    4.3144   -2.5049   -2.8841 H   0  0  0  0  0  0  0  0  0  0  0  0
    6.0238   -1.9532   -2.4348 H   0  0  0  0  0  0  0  0  0  0  0  0
    5.1460   -3.2712   -1.5218 H   0  0  0  0  0  0  0  0  0  0  0  0
    1.3660   -1.2929    2.0581 H   0  0  0  0  0  0  0  0  0  0  0  0
    1.2717   -2.5637    0.7245 H   0  0  0  0  0  0  0  0  0  0  0  0
   -1.2598   -1.7164    1.5428 H   0  0  0  0  0  0  0  0  0  0  0  0
   -2.1108    0.7838    0.2537 H   0  0  0  0  0  0  0  0  0  0  0  0
   -2.2400   -0.5244   -0.9664 H   0  0  0  0  0  0  0  0  0  0  0  0
   -3.4224   -0.4812    1.8362 H   0  0  0  0  0  0  0  0  0  0  0  0
   -3.5506   -1.8858    0.6394 H   0  0  0  0  0  0  0  0  0  0  0  0
   -4.8743    1.2972    1.7037 H   0  0  0  0  0  0  0  0  0  0  0  0
   -6.6885    2.5281    0.6487 H   0  0  0  0  0  0  0  0  0  0  0  0
   -7.4444    1.8356   -1.6186 H   0  0  0  0  0  0  0  0  0  0  0  0
   -6.3236   -0.0980   -2.7446 H   0  0  0  0  0  0  0  0  0  0  0  0
    1.5699    0.7331    1.9864 H   0  0  0  0  0  0  0  0  0  0  0  0
    2.4600    2.9094    2.5014 H   0  0  0  0  0  0  0  0  0  0  0  0
    4.5781    3.7024    1.4146 H   0  0  0  0  0  0  0  0  0  0  0  0
    5.7541    2.2122   -0.2068 H   0  0  0  0  0  0  0  0  0  0  0  0
  1  2  1  0  0  0  0
  1 26  1  0  0  0  0
  1 27  1  0  0  0  0
  1 28  1  0  0  0  0
  2  3  1  0  0  0  0
  3  4  2  0  0  0  0
  4  5  1  0  0  0  0
  4 18  1  0  0  0  0
  5  6  1  0  0  0  0
  5 29  1  0  0  0  0
  5 30  1  0  0  0  0
  6  7  2  0  0  0  0
  6  8  1  0  0  0  0
  8  9  1  0  0  0  0
  8 31  1  0  0  0  0
  9 10  1  0  0  0  0
  9 32  1  0  0  0  0
  9 33  1  0  0  0  0
 10 11  1  0  0  0  0
 10 34  1  0  0  0  0
 10 35  1  0  0  0  0
 11 12  2  0  0  0  0
 12 13  1  0  0  0  0
 12 36  1  0  0  0  0
 13 14  2  0  0  0  0
 13 37  1  0  0  0  0
 14 15  1  0  0  0  0
 14 38  1  0  0  0  0
 15 16  2  0  0  0  0
 15 39  1  0  0  0  0
 16 17  1  0  0  0  0
 16 11  1  0  0  0  0
 18 19  2  0  0  0  0
 19 20  1  0  0  0  0
 19 40  1  0  0  0  0
 20 21  2  0  0  0  0
 20 41  1  0  0  0  0
 21 22  1  0  0  0  0
 21 42  1  0  0  0  0
 22 23  2  0  0  0  0
 22 43  1  0  0  0  0
 23 24  1  0  0  0  0
 23 18  1  0  0  0  0
 24 25  2  0  0  0  0
 24  2  1  0  0  0  0
M  END
$$$$
