
 OpenBabel05232313403D

 38 40  0  0  0  0  0  0  0  0999 V2000
   -0.2112    1.7797    0.5319 O   0  0  0  0  0  0  0  0  0  0  0  0
    0.2110    0.9103   -0.2824 C   0  0  0  0  0  0  0  0  0  0  0  0
   -0.6826    0.3428   -1.3314 C   0  0  0  0  0  0  0  0  0  0  0  0
   -1.7070   -0.4343   -0.6277 C   0  0  0  0  0  0  0  0  0  0  0  0
   -1.4885   -1.7948   -0.4521 C   0  0  0  0  0  0  0  0  0  0  0  0
   -2.3509   -2.5947    0.2509 C   0  0  0  0  0  0  0  0  0  0  0  0
   -3.4721   -2.0280    0.8018 C   0  0  0  0  0  0  0  0  0  0  0  0
   -3.7306   -0.6786    0.6507 C   0  0  0  0  0  0  0  0  0  0  0  0
   -4.8658   -0.1605    1.2030 C   0  0  0  0  0  0  0  0  0  0  0  0
   -5.1310    1.1928    1.0348 C   0  0  0  0  0  0  0  0  0  0  0  0
   -4.2673    1.9731    0.3312 C   0  0  0  0  0  0  0  0  0  0  0  0
   -3.1343    1.4201   -0.2110 C   0  0  0  0  0  0  0  0  0  0  0  0
   -2.8338    0.1008   -0.0698 C   0  0  0  0  0  0  0  0  0  0  0  0
    1.5924    0.4844   -0.1571 C   0  0  0  0  0  0  0  0  0  0  0  0
    2.2072   -0.4598   -0.9336 C   0  0  0  0  0  0  0  0  0  0  0  0
    3.5446   -0.8288   -0.7404 C   0  0  0  0  0  0  0  0  0  0  0  0
    4.0546   -1.7975   -1.5885 O   0  0  0  0  0  0  0  0  0  0  0  0
    4.2500   -0.2187    0.2589 C   0  0  0  0  0  0  0  0  0  0  0  0
    5.5706   -0.5579    0.4782 O   0  0  0  0  0  0  0  0  0  0  0  0
    3.6683    0.7320    1.0567 C   0  0  0  0  0  0  0  0  0  0  0  0
    4.4264    1.3634    2.1073 N   0  3  0  0  0  0  0  0  0  0  0  0
    5.5714    1.8359    1.5639 O   0  5  0  0  0  0  0  0  0  0  0  0
    4.6573    0.4477    3.0527 F   0  0  0  0  0  0  0  0  0  0  0  0
    2.3536    1.0744    0.8444 C   0  0  0  0  0  0  0  0  0  0  0  0
   -0.1536   -0.3118   -2.0354 H   0  0  0  0  0  0  0  0  0  0  0  0
   -1.1099    1.1536   -1.9705 H   0  0  0  0  0  0  0  0  0  0  0  0
   -0.6063   -2.2464   -0.8859 H   0  0  0  0  0  0  0  0  0  0  0  0
   -2.1840   -3.6609    0.3940 H   0  0  0  0  0  0  0  0  0  0  0  0
   -4.1496   -2.6822    1.3617 H   0  0  0  0  0  0  0  0  0  0  0  0
   -5.5621   -0.7567    1.7619 H   0  0  0  0  0  0  0  0  0  0  0  0
   -6.0186    1.6125    1.4636 H   0  0  0  0  0  0  0  0  0  0  0  0
   -4.5092    3.0187    0.2205 H   0  0  0  0  0  0  0  0  0  0  0  0
   -2.4934    2.0473   -0.7705 H   0  0  0  0  0  0  0  0  0  0  0  0
    1.6507   -0.9365   -1.7171 H   0  0  0  0  0  0  0  0  0  0  0  0
    5.0004   -2.1070   -1.5027 H   0  0  0  0  0  0  0  0  0  0  0  0
    6.0769   -1.2308   -0.0407 H   0  0  0  0  0  0  0  0  0  0  0  0
    3.8756    2.1590    2.5173 H   0  0  0  0  0  0  0  0  0  0  0  0
    1.9505    1.8374    1.5111 H   0  0  0  0  0  0  0  0  0  0  0  0
  1  2  2  0  0  0  0
  2  3  1  0  0  0  0
  2 14  1  0  0  0  0
  3  4  1  0  0  0  0
  3 25  1  0  0  0  0
  3 26  1  0  0  0  0
  4  5  2  0  0  0  0
  5  6  1  0  0  0  0
  5 27  1  0  0  0  0
  6  7  2  0  0  0  0
  6 28  1  0  0  0  0
  7  8  1  0  0  0  0
  7 29  1  0  0  0  0
  8  9  2  0  0  0  0
  9 10  1  0  0  0  0
  9 30  1  0  0  0  0
 10 11  2  0  0  0  0
 10 31  1  0  0  0  0
 11 12  1  0  0  0  0
 11 32  1  0  0  0  0
 12 13  2  0  0  0  0
 12 33  1  0  0  0  0
 13  4  1  0  0  0  0
 13  8  1  0  0  0  0
 14 15  2  0  0  0  0
 15 16  1  0  0  0  0
 15 34  1  0  0  0  0
 16 17  1  0  0  0  0
 16 18  2  0  0  0  0
 17 35  1  0  0  0  0
 18 19  1  0  0  0  0
 18 20  1  0  0  0  0
 19 36  1  0  0  0  0
 20 21  1  0  0  0  0
 20 24  2  0  0  0  0
 21 22  1  0  0  0  0
 21 23  1  0  0  0  0
 21 37  1  0  0  0  0
 24 14  1  0  0  0  0
 24 38  1  0  0  0  0
M  CHG  2  21   1  22  -1
M  END
$$$$
