
 OpenBabel05232313393D

 34 36  0  0  0  0  0  0  0  0999 V2000
   -6.5733    0.6561    0.5605 N   0  0  0  0  0  0  0  0  0  0  0  0
   -5.2211    0.5557    0.9815 C   0  0  0  0  0  0  0  0  0  0  0  0
   -4.8466    1.1826    1.9867 O   0  0  0  0  0  0  0  0  0  0  0  0
   -4.2984   -0.2758    0.2334 C   0  0  0  0  0  0  0  0  0  0  0  0
   -4.6965   -0.9788   -0.8849 C   0  0  0  0  0  0  0  0  0  0  0  0
   -3.8014   -1.7745   -1.5959 C   0  0  0  0  0  0  0  0  0  0  0  0
   -2.4871   -1.8388   -1.1414 C   0  0  0  0  0  0  0  0  0  0  0  0
   -2.0675   -1.1502   -0.0338 C   0  0  0  0  0  0  0  0  0  0  0  0
   -0.7582   -1.2470    0.3745 O   0  0  0  0  0  0  0  0  0  0  0  0
    0.2297   -0.3740   -0.0866 C   0  0  0  0  0  0  0  0  0  0  0  0
   -0.1419    0.5805   -0.9563 N   0  0  0  0  0  0  0  0  0  0  0  0
    0.7145    1.4781   -1.4705 C   0  0  0  0  0  0  0  0  0  0  0  0
    1.9915    1.3930   -1.0797 N   0  0  0  0  0  0  0  0  0  0  0  0
    2.3821    0.4302   -0.1985 C   0  0  0  0  0  0  0  0  0  0  0  0
    3.7979    0.4085    0.1756 C   0  0  0  0  0  0  0  0  0  0  0  0
    4.2825   -0.5305    1.0611 C   0  0  0  0  0  0  0  0  0  0  0  0
    5.6227   -0.5656    1.4271 C   0  0  0  0  0  0  0  0  0  0  0  0
    6.5231    0.3623    0.8993 C   0  0  0  0  0  0  0  0  0  0  0  0
    6.0379    1.3006    0.0142 C   0  0  0  0  0  0  0  0  0  0  0  0
    4.7033    1.3144   -0.3330 C   0  0  0  0  0  0  0  0  0  0  0  0
    1.4971   -0.4436    0.2892 N   0  0  0  0  0  0  0  0  0  0  0  0
   -2.9636   -0.3682    0.6581 C   0  0  0  0  0  0  0  0  0  0  0  0
   -6.8128    0.8827   -0.4336 H   0  0  0  0  0  0  0  0  0  0  0  0
   -7.3769    0.5127    1.2043 H   0  0  0  0  0  0  0  0  0  0  0  0
   -5.7003   -0.9295   -1.2318 H   0  0  0  0  0  0  0  0  0  0  0  0
   -4.1304   -2.3192   -2.4708 H   0  0  0  0  0  0  0  0  0  0  0  0
   -1.7933   -2.4593   -1.6977 H   0  0  0  0  0  0  0  0  0  0  0  0
    0.3317    2.2034   -2.1566 H   0  0  0  0  0  0  0  0  0  0  0  0
    3.6014   -1.2554    1.4791 H   0  0  0  0  0  0  0  0  0  0  0  0
    5.9935   -1.3022    2.1194 H   0  0  0  0  0  0  0  0  0  0  0  0
    7.5571    0.3012    1.2094 H   0  0  0  0  0  0  0  0  0  0  0  0
    6.7429    2.0124   -0.3871 H   0  0  0  0  0  0  0  0  0  0  0  0
    4.3349    2.0519   -1.0255 H   0  0  0  0  0  0  0  0  0  0  0  0
   -2.6743    0.1862    1.5299 H   0  0  0  0  0  0  0  0  0  0  0  0
  1  2  1  0  0  0  0
  1 23  1  0  0  0  0
  1 24  1  0  0  0  0
  2  3  2  0  0  0  0
  2  4  1  0  0  0  0
  4  5  2  0  0  0  0
  5  6  1  0  0  0  0
  5 25  1  0  0  0  0
  6  7  2  0  0  0  0
  6 26  1  0  0  0  0
  7  8  1  0  0  0  0
  7 27  1  0  0  0  0
  8  9  1  0  0  0  0
  8 22  2  0  0  0  0
  9 10  1  0  0  0  0
 10 11  2  0  0  0  0
 11 12  1  0  0  0  0
 12 13  2  0  0  0  0
 12 28  1  0  0  0  0
 13 14  1  0  0  0  0
 14 15  1  0  0  0  0
 14 21  2  0  0  0  0
 15 16  2  0  0  0  0
 16 17  1  0  0  0  0
 16 29  1  0  0  0  0
 17 18  2  0  0  0  0
 17 30  1  0  0  0  0
 18 19  1  0  0  0  0
 18 31  1  0  0  0  0
 19 20  2  0  0  0  0
 19 32  1  0  0  0  0
 20 15  1  0  0  0  0
 20 33  1  0  0  0  0
 21 10  1  0  0  0  0
 22  4  1  0  0  0  0
 22 34  1  0  0  0  0
M  END
$$$$
