
 OpenBabel05232313403D

 31 33  0  0  0  0  0  0  0  0999 V2000
   -0.0229    3.0825    0.4710 N   0  0  0  0  0  0  0  0  0  0  0  0
   -0.9419    2.0045    0.4458 C   0  0  0  0  0  0  0  0  0  0  0  0
   -0.6602    0.8566   -0.2640 C   0  0  0  0  0  0  0  0  0  0  0  0
    0.5345    0.6772   -0.9985 N   0  0  0  0  0  0  0  0  0  0  0  0
    1.7164    0.1224   -0.4801 C   0  0  0  0  0  0  0  0  0  0  0  0
    1.8369   -0.3125    0.8218 C   0  0  0  0  0  0  0  0  0  0  0  0
    3.0452   -0.8553    1.2712 C   0  0  0  0  0  0  0  0  0  0  0  0
    4.1263   -0.9650    0.4326 C   0  0  0  0  0  0  0  0  0  0  0  0
    4.0117   -0.5331   -0.8655 C   0  0  0  0  0  0  0  0  0  0  0  0
    2.8196   -0.0050   -1.2845 C   0  0  0  0  0  0  0  0  0  0  0  0
   -1.5953   -0.1604   -0.2508 C   0  0  0  0  0  0  0  0  0  0  0  0
   -1.3962   -1.3411   -0.9317 C   0  0  0  0  0  0  0  0  0  0  0  0
   -2.3458   -2.3402   -0.9019 C   0  0  0  0  0  0  0  0  0  0  0  0
   -3.5029   -2.1189   -0.1675 C   0  0  0  0  0  0  0  0  0  0  0  0
   -3.7287   -0.9492    0.5226 C   0  0  0  0  0  0  0  0  0  0  0  0
   -2.7504    0.0427    0.4738 C   0  0  0  0  0  0  0  0  0  0  0  0
   -2.9857    1.1506    1.1390 O   0  0  0  0  0  0  0  0  0  0  0  0
   -2.1196    2.1293    1.1446 C   0  0  0  0  0  0  0  0  0  0  0  0
   -2.3998    3.1658    1.7995 O   0  0  0  0  0  0  0  0  0  0  0  0
    0.3231    3.5205    1.3503 H   0  0  0  0  0  0  0  0  0  0  0  0
    0.3284    3.4605   -0.4519 H   0  0  0  0  0  0  0  0  0  0  0  0
    0.5131    0.9859   -1.9935 H   0  0  0  0  0  0  0  0  0  0  0  0
    0.9958   -0.2361    1.5036 H   0  0  0  0  0  0  0  0  0  0  0  0
    3.1508   -1.1977    2.2839 H   0  0  0  0  0  0  0  0  0  0  0  0
    5.0739   -1.3835    0.7613 H   0  0  0  0  0  0  0  0  0  0  0  0
    4.8614   -0.6142   -1.5416 H   0  0  0  0  0  0  0  0  0  0  0  0
    2.7629    0.3283   -2.3216 H   0  0  0  0  0  0  0  0  0  0  0  0
   -0.5012   -1.5332   -1.5100 H   0  0  0  0  0  0  0  0  0  0  0  0
   -2.2466   -3.2850   -1.4143 H   0  0  0  0  0  0  0  0  0  0  0  0
   -4.2618   -2.9008   -0.1357 H   0  0  0  0  0  0  0  0  0  0  0  0
   -4.6412   -0.7953    1.0918 H   0  0  0  0  0  0  0  0  0  0  0  0
  1  2  1  0  0  0  0
  1 20  1  0  0  0  0
  1 21  1  0  0  0  0
  2  3  2  0  0  0  0
  3  4  1  0  0  0  0
  3 11  1  0  0  0  0
  4  5  1  0  0  0  0
  4 22  1  0  0  0  0
  5  6  2  0  0  0  0
  6  7  1  0  0  0  0
  6 23  1  0  0  0  0
  7  8  2  0  0  0  0
  7 24  1  0  0  0  0
  8  9  1  0  0  0  0
  8 25  1  0  0  0  0
  9 10  2  0  0  0  0
  9 26  1  0  0  0  0
 10  5  1  0  0  0  0
 10 27  1  0  0  0  0
 11 12  2  0  0  0  0
 12 13  1  0  0  0  0
 12 28  1  0  0  0  0
 13 14  2  0  0  0  0
 13 29  1  0  0  0  0
 14 15  1  0  0  0  0
 14 30  1  0  0  0  0
 15 16  2  0  0  0  0
 15 31  1  0  0  0  0
 16 17  1  0  0  0  0
 16 11  1  0  0  0  0
 17 18  1  0  0  0  0
 18 19  2  0  0  0  0
 18  2  1  0  0  0  0
M  END
$$$$
