
 OpenBabel05232313403D

 32 34  0  0  0  0  0  0  0  0999 V2000
   -3.8877    0.0825    2.6266 O   0  0  0  0  0  0  0  0  0  0  0  0
   -2.9841   -0.0708    1.5805 C   0  0  0  0  0  0  0  0  0  0  0  0
   -2.1768   -1.1792    1.4386 C   0  0  0  0  0  0  0  0  0  0  0  0
   -1.2904   -1.2595    0.3558 C   0  0  0  0  0  0  0  0  0  0  0  0
   -1.2044   -0.2525   -0.5758 C   0  0  0  0  0  0  0  0  0  0  0  0
   -0.2978   -0.2905   -1.7171 C   0  0  0  0  0  0  0  0  0  0  0  0
   -0.6746   -0.3589   -3.0333 N   0  0  0  0  0  0  0  0  0  0  0  0
    0.4097   -0.3654   -3.7482 N   0  0  0  0  0  0  0  0  0  0  0  0
    1.5054   -0.3046   -2.9758 C   0  0  0  0  0  0  0  0  0  0  0  0
    1.0667   -0.2548   -1.6393 C   0  0  0  0  0  0  0  0  0  0  0  0
    1.9732   -0.1897   -0.5058 C   0  0  0  0  0  0  0  0  0  0  0  0
    2.1715   -1.2437    0.3188 C   0  0  0  0  0  0  0  0  0  0  0  0
    3.0301   -1.1957    1.3966 C   0  0  0  0  0  0  0  0  0  0  0  0
    3.7220   -0.0334    1.6570 C   0  0  0  0  0  0  0  0  0  0  0  0
    4.5579   -0.0116    2.7201 F   0  0  0  0  0  0  0  0  0  0  0  0
    3.5347    1.0563    0.8269 C   0  0  0  0  0  0  0  0  0  0  0  0
    2.6556    0.9782   -0.2602 C   0  0  0  0  0  0  0  0  0  0  0  0
   -2.0211    0.8659   -0.4299 C   0  0  0  0  0  0  0  0  0  0  0  0
   -1.9741    1.9076   -1.3396 O   0  0  0  0  0  0  0  0  0  0  0  0
   -2.8853    0.9381    0.6304 C   0  0  0  0  0  0  0  0  0  0  0  0
   -3.6861    2.0384    0.7711 O   0  0  0  0  0  0  0  0  0  0  0  0
   -4.0123   -0.6019    3.3461 H   0  0  0  0  0  0  0  0  0  0  0  0
   -2.2661   -1.9446    2.1805 H   0  0  0  0  0  0  0  0  0  0  0  0
   -0.6866   -2.1575    0.2933 H   0  0  0  0  0  0  0  0  0  0  0  0
   -1.6798   -0.3958   -3.3070 H   0  0  0  0  0  0  0  0  0  0  0  0
    2.5513   -0.2905   -3.2645 H   0  0  0  0  0  0  0  0  0  0  0  0
    1.6579   -2.1676    0.1437 H   0  0  0  0  0  0  0  0  0  0  0  0
    3.1751   -2.0409    2.0400 H   0  0  0  0  0  0  0  0  0  0  0  0
    4.0911    1.9648    1.0510 H   0  0  0  0  0  0  0  0  0  0  0  0
    2.5594    1.8646   -0.8634 H   0  0  0  0  0  0  0  0  0  0  0  0
   -2.5756    2.7098   -1.2213 H   0  0  0  0  0  0  0  0  0  0  0  0
   -4.3587    2.2026    1.5043 H   0  0  0  0  0  0  0  0  0  0  0  0
  1  2  1  0  0  0  0
  1 22  1  0  0  0  0
  2  3  2  0  0  0  0
  3  4  1  0  0  0  0
  3 23  1  0  0  0  0
  4  5  2  0  0  0  0
  4 24  1  0  0  0  0
  5  6  1  0  0  0  0
  5 18  1  0  0  0  0
  6  7  1  0  0  0  0
  7  8  1  0  0  0  0
  7 25  1  0  0  0  0
  8  9  2  0  0  0  0
  9 10  1  0  0  0  0
  9 26  1  0  0  0  0
 10 11  1  0  0  0  0
 10  6  2  0  0  0  0
 11 12  2  0  0  0  0
 12 13  1  0  0  0  0
 12 27  1  0  0  0  0
 13 14  2  0  0  0  0
 13 28  1  0  0  0  0
 14 15  1  0  0  0  0
 14 16  1  0  0  0  0
 16 17  2  0  0  0  0
 16 29  1  0  0  0  0
 17 11  1  0  0  0  0
 17 30  1  0  0  0  0
 18 19  1  0  0  0  0
 18 20  2  0  0  0  0
 19 31  1  0  0  0  0
 20 21  1  0  0  0  0
 20  2  1  0  0  0  0
 21 32  1  0  0  0  0
M  END
$$$$
