
 OpenBabel05232313393D

 33 34  0  0  0  0  0  0  0  0999 V2000
   -5.0442    0.7888   -1.8386 C   0  0  0  0  0  0  0  0  0  0  0  0
   -3.6611    0.4825   -1.3995 C   0  0  0  0  0  0  0  0  0  0  0  0
   -2.6489    0.3071   -2.3302 C   0  0  0  0  0  0  0  0  0  0  0  0
   -1.3655    0.0228   -1.9185 C   0  0  0  0  0  0  0  0  0  0  0  0
   -1.0315   -0.0992   -0.5774 C   0  0  0  0  0  0  0  0  0  0  0  0
    0.2777   -0.3849   -0.2681 O   0  0  0  0  0  0  0  0  0  0  0  0
    1.2696    0.5292   -0.0447 C   0  0  0  0  0  0  0  0  0  0  0  0
    0.9773    1.7495   -0.1249 O   0  0  0  0  0  0  0  0  0  0  0  0
    2.6468    0.1786    0.2811 C   0  0  0  0  0  0  0  0  0  0  0  0
    3.6019    1.1499    0.4954 C   0  0  0  0  0  0  0  0  0  0  0  0
    4.9055    0.8658    0.8033 C   0  0  0  0  0  0  0  0  0  0  0  0
    5.3072   -0.4287    0.9098 C   0  0  0  0  0  0  0  0  0  0  0  0
    4.3875   -1.4452    0.7042 C   0  0  0  0  0  0  0  0  0  0  0  0
    4.8276   -2.7800    0.8200 N   0  3  0  0  0  0  0  0  0  0  0  0
    6.0000   -3.0305    1.0968 O   0  0  0  0  0  0  0  0  0  0  0  0
    3.9414   -3.7954    0.6222 O   0  5  0  0  0  0  0  0  0  0  0  0
    3.0665   -1.1282    0.3919 C   0  0  0  0  0  0  0  0  0  0  0  0
   -2.0292    0.0734    0.3473 C   0  0  0  0  0  0  0  0  0  0  0  0
   -3.3137    0.3581   -0.0687 C   0  0  0  0  0  0  0  0  0  0  0  0
   -4.3513    0.5344    0.9739 C   0  0  0  0  0  0  0  0  0  0  0  0
   -4.9939    1.1314   -2.8994 H   0  0  0  0  0  0  0  0  0  0  0  0
   -5.4892    1.6462   -1.2782 H   0  0  0  0  0  0  0  0  0  0  0  0
   -5.7093   -0.0916   -1.8328 H   0  0  0  0  0  0  0  0  0  0  0  0
   -2.9265    0.4056   -3.3699 H   0  0  0  0  0  0  0  0  0  0  0  0
   -0.5764   -0.1128   -2.6753 H   0  0  0  0  0  0  0  0  0  0  0  0
    3.3114    2.1878    0.4175 H   0  0  0  0  0  0  0  0  0  0  0  0
    5.5996    1.6936    0.9579 H   0  0  0  0  0  0  0  0  0  0  0  0
    6.3420   -0.6294    1.1539 H   0  0  0  0  0  0  0  0  0  0  0  0
    2.3398   -1.9064    0.2292 H   0  0  0  0  0  0  0  0  0  0  0  0
   -1.7629   -0.0234    1.4036 H   0  0  0  0  0  0  0  0  0  0  0  0
   -4.1007    1.3977    1.6457 H   0  0  0  0  0  0  0  0  0  0  0  0
   -5.3408    0.7582    0.5521 H   0  0  0  0  0  0  0  0  0  0  0  0
   -4.4567   -0.4052    1.5561 H   0  0  0  0  0  0  0  0  0  0  0  0
  1  2  1  0  0  0  0
  1 21  1  0  0  0  0
  1 22  1  0  0  0  0
  1 23  1  0  0  0  0
  2  3  2  0  0  0  0
  3  4  1  0  0  0  0
  3 24  1  0  0  0  0
  4  5  2  0  0  0  0
  4 25  1  0  0  0  0
  5  6  1  0  0  0  0
  5 18  1  0  0  0  0
  6  7  1  0  0  0  0
  7  8  2  0  0  0  0
  7  9  1  0  0  0  0
  9 10  2  0  0  0  0
 10 11  1  0  0  0  0
 10 26  1  0  0  0  0
 11 12  2  0  0  0  0
 11 27  1  0  0  0  0
 12 13  1  0  0  0  0
 12 28  1  0  0  0  0
 13 14  1  0  0  0  0
 13 17  2  0  0  0  0
 14 15  2  0  0  0  0
 14 16  1  0  0  0  0
 17  9  1  0  0  0  0
 17 29  1  0  0  0  0
 18 19  2  0  0  0  0
 18 30  1  0  0  0  0
 19 20  1  0  0  0  0
 19  2  1  0  0  0  0
 20 31  1  0  0  0  0
 20 32  1  0  0  0  0
 20 33  1  0  0  0  0
M  CHG  2  14   1  16  -1
M  END
$$$$
