
 OpenBabel05232313403D

 59 63  0  0  0  0  0  0  0  0999 V2000
   -5.8655    0.5320    1.3335 N   0  0  0  0  0  0  0  0  0  0  0  0
   -5.6351   -0.1960    0.1329 C   0  0  0  0  0  0  0  0  0  0  0  0
   -6.5114   -1.1057   -0.2366 C   0  0  0  0  0  0  0  0  0  0  0  0
   -7.7651   -1.8483   -0.0164 C   0  0  0  0  0  0  0  0  0  0  0  0
   -6.9548   -2.1688   -1.2295 C   0  0  0  0  0  0  0  0  0  0  0  0
   -4.4821    0.0725   -0.6350 N   0  0  0  0  0  0  0  0  0  0  0  0
   -4.1680    1.4763   -0.9117 C   0  0  0  0  0  0  0  0  0  0  0  0
   -2.9412    1.8033   -0.0811 C   0  0  0  0  0  0  0  0  0  0  0  0
   -1.7181    1.1073   -0.6109 C   0  0  0  0  0  0  0  0  0  0  0  0
   -1.6309   -0.1963   -0.0098 N   0  0  0  0  0  0  0  0  0  0  0  0
   -0.4756   -0.4501    0.7517 C   0  0  0  0  0  0  0  0  0  0  0  0
   -0.2947   -1.5671    1.3261 O   0  0  0  0  0  0  0  0  0  0  0  0
    0.6020    0.5279    0.9475 C   0  0  0  0  0  0  0  0  0  0  0  0
    1.6854    0.5925    0.0580 C   0  0  0  0  0  0  0  0  0  0  0  0
    2.7064    1.4850    0.2147 C   0  0  0  0  0  0  0  0  0  0  0  0
    3.8309    1.5247   -0.7198 C   0  0  0  0  0  0  0  0  0  0  0  0
    5.1273    1.0685   -0.1857 C   0  0  0  0  0  0  0  0  0  0  0  0
    6.0041    1.9790    0.3272 N   0  0  0  0  0  0  0  0  0  0  0  0
    7.1278    1.5721    0.8476 N   0  0  0  0  0  0  0  0  0  0  0  0
    7.5068    0.2972    0.9238 C   0  0  0  0  0  0  0  0  0  0  0  0
    8.6161   -0.0757    1.4409 O   0  0  0  0  0  0  0  0  0  0  0  0
    6.6722   -0.6611    0.4261 C   0  0  0  0  0  0  0  0  0  0  0  0
    7.0358   -1.9895    0.4752 C   0  0  0  0  0  0  0  0  0  0  0  0
    6.1963   -2.9502   -0.0416 C   0  0  0  0  0  0  0  0  0  0  0  0
    4.9976   -2.5825   -0.6058 C   0  0  0  0  0  0  0  0  0  0  0  0
    4.6385   -1.2546   -0.6521 C   0  0  0  0  0  0  0  0  0  0  0  0
    5.4605   -0.2499   -0.1378 C   0  0  0  0  0  0  0  0  0  0  0  0
    2.6238    2.3389    1.3081 C   0  0  0  0  0  0  0  0  0  0  0  0
    1.5657    2.2798    2.1818 C   0  0  0  0  0  0  0  0  0  0  0  0
    0.5334    1.3700    2.0153 C   0  0  0  0  0  0  0  0  0  0  0  0
   -0.5107    1.3080    2.8727 F   0  0  0  0  0  0  0  0  0  0  0  0
   -2.5740   -1.2789   -0.0925 C   0  0  0  0  0  0  0  0  0  0  0  0
   -3.6626   -1.0253   -1.1082 C   0  0  0  0  0  0  0  0  0  0  0  0
   -5.0999    0.6059    2.0644 H   0  0  0  0  0  0  0  0  0  0  0  0
   -6.7496    1.0195    1.5712 H   0  0  0  0  0  0  0  0  0  0  0  0
   -8.7462   -1.3541   -0.1814 H   0  0  0  0  0  0  0  0  0  0  0  0
   -7.7907   -2.6543    0.7512 H   0  0  0  0  0  0  0  0  0  0  0  0
   -6.3480   -3.1100   -1.2329 H   0  0  0  0  0  0  0  0  0  0  0  0
   -7.3308   -1.8088   -2.2117 H   0  0  0  0  0  0  0  0  0  0  0  0
   -4.9932    2.1081   -0.5337 H   0  0  0  0  0  0  0  0  0  0  0  0
   -3.9789    1.6580   -1.9848 H   0  0  0  0  0  0  0  0  0  0  0  0
   -3.1708    1.5379    0.9629 H   0  0  0  0  0  0  0  0  0  0  0  0
   -2.7610    2.8882   -0.1438 H   0  0  0  0  0  0  0  0  0  0  0  0
   -1.7820    0.9424   -1.7207 H   0  0  0  0  0  0  0  0  0  0  0  0
   -0.8177    1.7281   -0.4192 H   0  0  0  0  0  0  0  0  0  0  0  0
    1.6244   -0.1235   -0.7692 H   0  0  0  0  0  0  0  0  0  0  0  0
    3.9593    2.5863   -1.0948 H   0  0  0  0  0  0  0  0  0  0  0  0
    3.5801    0.9280   -1.6130 H   0  0  0  0  0  0  0  0  0  0  0  0
    7.8317    2.2665    1.2604 H   0  0  0  0  0  0  0  0  0  0  0  0
    7.9964   -2.2673    0.9289 H   0  0  0  0  0  0  0  0  0  0  0  0
    6.4773   -3.9751   -0.0034 H   0  0  0  0  0  0  0  0  0  0  0  0
    4.3432   -3.3381   -1.0096 H   0  0  0  0  0  0  0  0  0  0  0  0
    3.7192   -0.9677   -1.1067 H   0  0  0  0  0  0  0  0  0  0  0  0
    3.4144    3.0462    1.4483 H   0  0  0  0  0  0  0  0  0  0  0  0
    1.4918    2.9401    3.0355 H   0  0  0  0  0  0  0  0  0  0  0  0
   -2.0426   -2.2289   -0.3661 H   0  0  0  0  0  0  0  0  0  0  0  0
   -3.0899   -1.4455    0.8956 H   0  0  0  0  0  0  0  0  0  0  0  0
   -4.2759   -1.9430   -1.2001 H   0  0  0  0  0  0  0  0  0  0  0  0
   -3.2016   -0.7738   -2.1066 H   0  0  0  0  0  0  0  0  0  0  0  0
  1  2  1  0  0  0  0
  1 34  1  0  0  0  0
  1 35  1  0  0  0  0
  2  3  2  0  0  0  0
  2  6  1  0  0  0  0
  3  4  1  0  0  0  0
  4  5  1  0  0  0  0
  4 36  1  0  0  0  0
  4 37  1  0  0  0  0
  5  3  1  0  0  0  0
  5 38  1  0  0  0  0
  5 39  1  0  0  0  0
  6  7  1  0  0  0  0
  7  8  1  0  0  0  0
  7 40  1  0  0  0  0
  7 41  1  0  0  0  0
  8  9  1  0  0  0  0
  8 42  1  0  0  0  0
  8 43  1  0  0  0  0
  9 10  1  0  0  0  0
  9 44  1  0  0  0  0
  9 45  1  0  0  0  0
 10 11  1  0  0  0  0
 10 32  1  0  0  0  0
 11 12  2  0  0  0  0
 11 13  1  0  0  0  0
 13 14  2  0  0  0  0
 14 15  1  0  0  0  0
 14 46  1  0  0  0  0
 15 16  1  0  0  0  0
 15 28  2  0  0  0  0
 16 17  1  0  0  0  0
 16 47  1  0  0  0  0
 16 48  1  0  0  0  0
 17 18  2  0  0  0  0
 18 19  1  0  0  0  0
 19 20  1  0  0  0  0
 19 49  1  0  0  0  0
 20 21  2  0  0  0  0
 20 22  1  0  0  0  0
 22 23  2  0  0  0  0
 23 24  1  0  0  0  0
 23 50  1  0  0  0  0
 24 25  2  0  0  0  0
 24 51  1  0  0  0  0
 25 26  1  0  0  0  0
 25 52  1  0  0  0  0
 26 27  2  0  0  0  0
 26 53  1  0  0  0  0
 27 17  1  0  0  0  0
 27 22  1  0  0  0  0
 28 29  1  0  0  0  0
 28 54  1  0  0  0  0
 29 30  2  0  0  0  0
 29 55  1  0  0  0  0
 30 31  1  0  0  0  0
 30 13  1  0  0  0  0
 32 33  1  0  0  0  0
 32 56  1  0  0  0  0
 32 57  1  0  0  0  0
 33  6  1  0  0  0  0
 33 58  1  0  0  0  0
 33 59  1  0  0  0  0
M  END
$$$$
