
 OpenBabel05232313403D

 49 52  0  0  0  0  0  0  0  0999 V2000
    0.1450    3.5173    0.3054 O   0  0  0  0  0  0  0  0  0  0  0  0
    0.0847    2.2662    0.2280 C   0  0  0  0  0  0  0  0  0  0  0  0
   -1.2295    1.6129    0.2178 C   0  0  0  0  0  0  0  0  0  0  0  0
   -2.0514    1.8020    1.4556 C   0  0  0  0  0  0  0  0  0  0  0  0
   -3.3744    1.0902    1.2698 C   0  0  0  0  0  0  0  0  0  0  0  0
   -3.7007    0.6483    0.0363 N   0  0  0  0  0  0  0  0  0  0  0  0
   -4.8398   -0.0317   -0.1773 C   0  0  0  0  0  0  0  0  0  0  0  0
   -5.1490   -0.4746   -1.4389 C   0  0  0  0  0  0  0  0  0  0  0  0
   -6.3202   -1.1692   -1.6144 C   0  0  0  0  0  0  0  0  0  0  0  0
   -7.1798   -1.4324   -0.5960 C   0  0  0  0  0  0  0  0  0  0  0  0
   -6.8881   -0.9907    0.6993 C   0  0  0  0  0  0  0  0  0  0  0  0
   -5.6933   -0.2852    0.8649 C   0  0  0  0  0  0  0  0  0  0  0  0
   -5.3673    0.1653    2.1308 C   0  0  0  0  0  0  0  0  0  0  0  0
   -6.1517   -0.0705    3.0657 O   0  0  0  0  0  0  0  0  0  0  0  0
   -4.2074    0.8425    2.2804 N   0  0  0  0  0  0  0  0  0  0  0  0
    1.2921    1.5197    0.1427 N   0  0  0  0  0  0  0  0  0  0  0  0
    2.5536    2.1870    0.0345 C   0  0  0  0  0  0  0  0  0  0  0  0
    3.6096    1.3412   -0.6323 C   0  0  0  0  0  0  0  0  0  0  0  0
    3.7114   -0.0038   -0.1132 N   0  0  0  0  0  0  0  0  0  0  0  0
    4.6950   -0.9359   -0.5007 C   0  0  0  0  0  0  0  0  0  0  0  0
    5.1015   -1.9219    0.3864 C   0  0  0  0  0  0  0  0  0  0  0  0
    6.0491   -2.8509    0.0216 C   0  0  0  0  0  0  0  0  0  0  0  0
    6.6031   -2.7934   -1.2610 C   0  0  0  0  0  0  0  0  0  0  0  0
    7.5357   -3.7268   -1.5592 F   0  0  0  0  0  0  0  0  0  0  0  0
    6.1974   -1.8188   -2.1289 C   0  0  0  0  0  0  0  0  0  0  0  0
    5.2233   -0.8589   -1.7579 C   0  0  0  0  0  0  0  0  0  0  0  0
    2.6617   -0.3513    0.8563 C   0  0  0  0  0  0  0  0  0  0  0  0
    1.3068    0.0584    0.2433 C   0  0  0  0  0  0  0  0  0  0  0  0
   -1.8250    2.1346   -0.6022 H   0  0  0  0  0  0  0  0  0  0  0  0
   -1.2120    0.5536   -0.1155 H   0  0  0  0  0  0  0  0  0  0  0  0
   -1.6005    1.3639    2.3641 H   0  0  0  0  0  0  0  0  0  0  0  0
   -2.2704    2.8654    1.6268 H   0  0  0  0  0  0  0  0  0  0  0  0
   -4.4472   -0.2572   -2.2566 H   0  0  0  0  0  0  0  0  0  0  0  0
   -6.5176   -1.5055   -2.6445 H   0  0  0  0  0  0  0  0  0  0  0  0
   -8.0968   -1.9855   -0.7865 H   0  0  0  0  0  0  0  0  0  0  0  0
   -7.5568   -1.1871    1.5210 H   0  0  0  0  0  0  0  0  0  0  0  0
   -3.9853    1.1678    3.2645 H   0  0  0  0  0  0  0  0  0  0  0  0
    2.9320    2.5837    0.9929 H   0  0  0  0  0  0  0  0  0  0  0  0
    2.3647    3.0920   -0.6259 H   0  0  0  0  0  0  0  0  0  0  0  0
    3.3115    1.1988   -1.7134 H   0  0  0  0  0  0  0  0  0  0  0  0
    4.5600    1.8978   -0.6456 H   0  0  0  0  0  0  0  0  0  0  0  0
    4.6388   -1.9068    1.3669 H   0  0  0  0  0  0  0  0  0  0  0  0
    6.3523   -3.6049    0.7422 H   0  0  0  0  0  0  0  0  0  0  0  0
    6.6276   -1.7828   -3.1121 H   0  0  0  0  0  0  0  0  0  0  0  0
    4.9294   -0.1079   -2.4708 H   0  0  0  0  0  0  0  0  0  0  0  0
    2.7178   -1.4333    1.0192 H   0  0  0  0  0  0  0  0  0  0  0  0
    2.7364    0.1725    1.8004 H   0  0  0  0  0  0  0  0  0  0  0  0
    1.2630   -0.3880   -0.7579 H   0  0  0  0  0  0  0  0  0  0  0  0
    0.4607   -0.2060    0.9051 H   0  0  0  0  0  0  0  0  0  0  0  0
  1  2  2  0  0  0  0
  2  3  1  0  0  0  0
  2 16  1  0  0  0  0
  3  4  1  0  0  0  0
  3 29  1  0  0  0  0
  3 30  1  0  0  0  0
  4  5  1  0  0  0  0
  4 31  1  0  0  0  0
  4 32  1  0  0  0  0
  5  6  2  0  0  0  0
  6  7  1  0  0  0  0
  7  8  2  0  0  0  0
  8  9  1  0  0  0  0
  8 33  1  0  0  0  0
  9 10  2  0  0  0  0
  9 34  1  0  0  0  0
 10 11  1  0  0  0  0
 10 35  1  0  0  0  0
 11 12  2  0  0  0  0
 11 36  1  0  0  0  0
 12 13  1  0  0  0  0
 12  7  1  0  0  0  0
 13 14  2  0  0  0  0
 13 15  1  0  0  0  0
 15  5  1  0  0  0  0
 15 37  1  0  0  0  0
 16 17  1  0  0  0  0
 17 18  1  0  0  0  0
 17 38  1  0  0  0  0
 17 39  1  0  0  0  0
 18 19  1  0  0  0  0
 18 40  1  0  0  0  0
 18 41  1  0  0  0  0
 19 20  1  0  0  0  0
 19 27  1  0  0  0  0
 20 21  2  0  0  0  0
 21 22  1  0  0  0  0
 21 42  1  0  0  0  0
 22 23  2  0  0  0  0
 22 43  1  0  0  0  0
 23 24  1  0  0  0  0
 23 25  1  0  0  0  0
 25 26  2  0  0  0  0
 25 44  1  0  0  0  0
 26 20  1  0  0  0  0
 26 45  1  0  0  0  0
 27 28  1  0  0  0  0
 27 46  1  0  0  0  0
 27 47  1  0  0  0  0
 28 16  1  0  0  0  0
 28 48  1  0  0  0  0
 28 49  1  0  0  0  0
M  END
$$$$
