
 OpenBabel05232313403D

 49 52  0  0  0  0  0  0  0  0999 V2000
   -1.7900   -2.1919   -1.8418 O   0  0  0  0  0  0  0  0  0  0  0  0
   -1.4459   -1.2094   -1.1218 C   0  0  0  0  0  0  0  0  0  0  0  0
   -2.3942   -0.0393   -1.0737 C   0  0  0  0  0  0  0  0  0  0  0  0
   -3.6133   -0.3839   -0.3175 C   0  0  0  0  0  0  0  0  0  0  0  0
   -3.9058   -1.6410    0.0386 N   0  0  0  0  0  0  0  0  0  0  0  0
   -5.0184   -1.9231    0.7392 N   0  0  0  0  0  0  0  0  0  0  0  0
   -5.8832   -0.9581    1.1117 C   0  0  0  0  0  0  0  0  0  0  0  0
   -6.9297   -1.1942    1.7675 O   0  0  0  0  0  0  0  0  0  0  0  0
   -5.6301    0.3403    0.7727 C   0  0  0  0  0  0  0  0  0  0  0  0
   -6.5010    1.3322    1.1460 C   0  0  0  0  0  0  0  0  0  0  0  0
   -6.2626    2.6606    0.8109 C   0  0  0  0  0  0  0  0  0  0  0  0
   -5.1358    2.9484    0.0991 C   0  0  0  0  0  0  0  0  0  0  0  0
   -4.2676    1.9397   -0.2700 C   0  0  0  0  0  0  0  0  0  0  0  0
   -4.4827    0.6197    0.0505 C   0  0  0  0  0  0  0  0  0  0  0  0
   -0.2484   -1.2257   -0.4167 N   0  0  0  0  0  0  0  0  0  0  0  0
    0.1393   -0.1605    0.4714 C   0  0  0  0  0  0  0  0  0  0  0  0
    1.3950    0.5110   -0.0259 C   0  0  0  0  0  0  0  0  0  0  0  0
    2.3868   -0.4905   -0.3058 N   0  0  0  0  0  0  0  0  0  0  0  0
    3.7347   -0.1830    0.0553 C   0  0  0  0  0  0  0  0  0  0  0  0
    4.1031   -0.0097    1.3505 C   0  0  0  0  0  0  0  0  0  0  0  0
    5.4122    0.3241    1.7107 C   0  0  0  0  0  0  0  0  0  0  0  0
    6.3548    0.4822    0.7210 C   0  0  0  0  0  0  0  0  0  0  0  0
    5.9968    0.3111   -0.5956 C   0  0  0  0  0  0  0  0  0  0  0  0
    7.0238    0.5031   -1.6505 C   0  0  0  0  0  0  0  0  0  0  0  0
    6.5046    0.2948   -2.9185 F   0  0  0  0  0  0  0  0  0  0  0  0
    8.0797   -0.3587   -1.4427 F   0  0  0  0  0  0  0  0  0  0  0  0
    7.5144    1.8065   -1.5774 F   0  0  0  0  0  0  0  0  0  0  0  0
    4.6804   -0.0235   -0.9340 C   0  0  0  0  0  0  0  0  0  0  0  0
    2.0744   -1.7351   -0.9126 C   0  0  0  0  0  0  0  0  0  0  0  0
    0.7061   -2.2945   -0.5668 C   0  0  0  0  0  0  0  0  0  0  0  0
   -1.8411    0.8243   -0.7237 H   0  0  0  0  0  0  0  0  0  0  0  0
   -2.6662    0.1024   -2.1755 H   0  0  0  0  0  0  0  0  0  0  0  0
   -5.2519   -2.9031    1.0213 H   0  0  0  0  0  0  0  0  0  0  0  0
   -7.4096    1.1488    1.7106 H   0  0  0  0  0  0  0  0  0  0  0  0
   -6.9584    3.4286    1.1128 H   0  0  0  0  0  0  0  0  0  0  0  0
   -4.9166    3.9913   -0.1800 H   0  0  0  0  0  0  0  0  0  0  0  0
   -3.3936    2.2283   -0.8326 H   0  0  0  0  0  0  0  0  0  0  0  0
    0.4480   -0.6931    1.4241 H   0  0  0  0  0  0  0  0  0  0  0  0
   -0.6512    0.5195    0.7841 H   0  0  0  0  0  0  0  0  0  0  0  0
    1.2195    1.0671   -0.9763 H   0  0  0  0  0  0  0  0  0  0  0  0
    1.7076    1.2247    0.7648 H   0  0  0  0  0  0  0  0  0  0  0  0
    3.4002   -0.1254    2.1388 H   0  0  0  0  0  0  0  0  0  0  0  0
    5.7038    0.4545    2.7379 H   0  0  0  0  0  0  0  0  0  0  0  0
    7.3915    0.7403    0.9560 H   0  0  0  0  0  0  0  0  0  0  0  0
    4.4177   -0.1500   -1.9824 H   0  0  0  0  0  0  0  0  0  0  0  0
    2.0652   -1.5733   -2.0190 H   0  0  0  0  0  0  0  0  0  0  0  0
    2.8797   -2.5032   -0.7434 H   0  0  0  0  0  0  0  0  0  0  0  0
    0.4448   -3.0539   -1.3056 H   0  0  0  0  0  0  0  0  0  0  0  0
    0.8133   -2.7794    0.4248 H   0  0  0  0  0  0  0  0  0  0  0  0
  1  2  2  0  0  0  0
  2  3  1  0  0  0  0
  2 15  1  0  0  0  0
  3  4  1  0  0  0  0
  3 31  1  0  0  0  0
  3 32  1  0  0  0  0
  4  5  2  0  0  0  0
  5  6  1  0  0  0  0
  6  7  1  0  0  0  0
  6 33  1  0  0  0  0
  7  8  2  0  0  0  0
  7  9  1  0  0  0  0
  9 10  2  0  0  0  0
 10 11  1  0  0  0  0
 10 34  1  0  0  0  0
 11 12  2  0  0  0  0
 11 35  1  0  0  0  0
 12 13  1  0  0  0  0
 12 36  1  0  0  0  0
 13 14  2  0  0  0  0
 13 37  1  0  0  0  0
 14  4  1  0  0  0  0
 14  9  1  0  0  0  0
 15 16  1  0  0  0  0
 16 17  1  0  0  0  0
 16 38  1  0  0  0  0
 16 39  1  0  0  0  0
 17 18  1  0  0  0  0
 17 40  1  0  0  0  0
 17 41  1  0  0  0  0
 18 19  1  0  0  0  0
 18 29  1  0  0  0  0
 19 20  2  0  0  0  0
 20 21  1  0  0  0  0
 20 42  1  0  0  0  0
 21 22  2  0  0  0  0
 21 43  1  0  0  0  0
 22 23  1  0  0  0  0
 22 44  1  0  0  0  0
 23 24  1  0  0  0  0
 23 28  2  0  0  0  0
 24 25  1  0  0  0  0
 24 26  1  0  0  0  0
 24 27  1  0  0  0  0
 28 19  1  0  0  0  0
 28 45  1  0  0  0  0
 29 30  1  0  0  0  0
 29 46  1  0  0  0  0
 29 47  1  0  0  0  0
 30 15  1  0  0  0  0
 30 48  1  0  0  0  0
 30 49  1  0  0  0  0
M  END
$$$$
