
 OpenBabel05232313403D

 51 53  0  0  0  0  0  0  0  0999 V2000
    4.4090    0.5369    0.6740 O   0  0  0  0  0  0  0  0  0  0  0  0
    4.2878   -0.6605    0.3142 C   0  0  0  0  0  0  0  0  0  0  0  0
    5.5111   -1.4163   -0.0365 C   0  0  0  0  0  0  0  0  0  0  0  0
    6.7298   -0.5894    0.0847 C   0  0  0  0  0  0  0  0  0  0  0  0
    7.1407    0.1801   -0.9772 C   0  0  0  0  0  0  0  0  0  0  0  0
    8.2695    0.9692   -0.9340 C   0  0  0  0  0  0  0  0  0  0  0  0
    9.0280    1.0043    0.2009 C   0  0  0  0  0  0  0  0  0  0  0  0
    8.6329    0.2385    1.2804 C   0  0  0  0  0  0  0  0  0  0  0  0
    7.4878   -0.5581    1.2288 C   0  0  0  0  0  0  0  0  0  0  0  0
    3.0013   -1.2360    0.2576 N   0  0  0  0  0  0  0  0  0  0  0  0
    1.8846   -0.4329    0.6108 N   0  0  0  0  0  0  0  0  0  0  0  0
    0.7934   -0.2632   -0.2740 C   0  0  0  0  0  0  0  0  0  0  0  0
    0.8251   -0.8361   -1.3812 O   0  0  0  0  0  0  0  0  0  0  0  0
   -0.3365    0.5677    0.1123 C   0  0  0  0  0  0  0  0  0  0  0  0
   -0.3609    1.3362    1.2508 C   0  0  0  0  0  0  0  0  0  0  0  0
   -1.4833    2.1095    1.5482 C   0  0  0  0  0  0  0  0  0  0  0  0
   -2.5911    2.1357    0.7337 C   0  0  0  0  0  0  0  0  0  0  0  0
   -2.5597    1.3628   -0.4055 C   0  0  0  0  0  0  0  0  0  0  0  0
   -3.9534    1.3601   -1.4951 S   0  0  0  0  0  0  0  0  0  0  0  0
   -4.5022    2.7591   -1.4546 O   0  0  0  0  0  0  0  0  0  0  0  0
   -3.4857    1.0769   -2.8828 O   0  0  0  0  0  0  0  0  0  0  0  0
   -5.1372    0.2690   -1.0138 N   0  0  0  0  0  0  0  0  0  0  0  0
   -5.7236    0.5044    0.2571 C   0  0  0  0  0  0  0  0  0  0  0  0
   -6.9215   -0.3095    0.5695 C   0  0  0  0  0  0  0  0  0  0  0  0
   -7.2982   -1.2619   -0.5409 C   0  0  0  0  0  0  0  0  0  0  0  0
   -6.1113   -1.9790   -1.1382 C   0  0  0  0  0  0  0  0  0  0  0  0
   -4.9473   -1.0838   -1.3880 C   0  0  0  0  0  0  0  0  0  0  0  0
   -1.4605    0.6090   -0.6918 C   0  0  0  0  0  0  0  0  0  0  0  0
    5.5856   -2.2675    0.6839 H   0  0  0  0  0  0  0  0  0  0  0  0
    5.4017   -1.8740   -1.0511 H   0  0  0  0  0  0  0  0  0  0  0  0
    6.5634    0.1735   -1.8847 H   0  0  0  0  0  0  0  0  0  0  0  0
    8.5597    1.5582   -1.7873 H   0  0  0  0  0  0  0  0  0  0  0  0
    9.9146    1.5885    0.3102 H   0  0  0  0  0  0  0  0  0  0  0  0
    9.2146    0.2532    2.1856 H   0  0  0  0  0  0  0  0  0  0  0  0
    7.1768   -1.1639    2.0853 H   0  0  0  0  0  0  0  0  0  0  0  0
    2.8586   -2.2153   -0.0324 H   0  0  0  0  0  0  0  0  0  0  0  0
    1.9206    0.0025    1.5290 H   0  0  0  0  0  0  0  0  0  0  0  0
    0.4958    1.3419    1.9179 H   0  0  0  0  0  0  0  0  0  0  0  0
   -1.4487    2.6998    2.4642 H   0  0  0  0  0  0  0  0  0  0  0  0
   -3.4599    2.7360    0.9698 H   0  0  0  0  0  0  0  0  0  0  0  0
   -4.9446    0.3638    1.0430 H   0  0  0  0  0  0  0  0  0  0  0  0
   -5.9782    1.5961    0.3053 H   0  0  0  0  0  0  0  0  0  0  0  0
   -6.8478   -0.8629    1.5373 H   0  0  0  0  0  0  0  0  0  0  0  0
   -7.7979    0.3724    0.7006 H   0  0  0  0  0  0  0  0  0  0  0  0
   -7.9447   -2.0593   -0.0671 H   0  0  0  0  0  0  0  0  0  0  0  0
   -7.9118   -0.7614   -1.2910 H   0  0  0  0  0  0  0  0  0  0  0  0
   -6.4743   -2.4459   -2.0941 H   0  0  0  0  0  0  0  0  0  0  0  0
   -5.8247   -2.8343   -0.4910 H   0  0  0  0  0  0  0  0  0  0  0  0
   -4.6691   -1.1364   -2.4586 H   0  0  0  0  0  0  0  0  0  0  0  0
   -4.0638   -1.4674   -0.8132 H   0  0  0  0  0  0  0  0  0  0  0  0
   -1.4548    0.0096   -1.5891 H   0  0  0  0  0  0  0  0  0  0  0  0
  1  2  2  0  0  0  0
  2  3  1  0  0  0  0
  2 10  1  0  0  0  0
  3  4  1  0  0  0  0
  3 29  1  0  0  0  0
  3 30  1  0  0  0  0
  4  5  2  0  0  0  0
  5  6  1  0  0  0  0
  5 31  1  0  0  0  0
  6  7  2  0  0  0  0
  6 32  1  0  0  0  0
  7  8  1  0  0  0  0
  7 33  1  0  0  0  0
  8  9  2  0  0  0  0
  8 34  1  0  0  0  0
  9  4  1  0  0  0  0
  9 35  1  0  0  0  0
 10 11  1  0  0  0  0
 10 36  1  0  0  0  0
 11 12  1  0  0  0  0
 11 37  1  0  0  0  0
 12 13  2  0  0  0  0
 12 14  1  0  0  0  0
 14 15  2  0  0  0  0
 15 16  1  0  0  0  0
 15 38  1  0  0  0  0
 16 17  2  0  0  0  0
 16 39  1  0  0  0  0
 17 18  1  0  0  0  0
 17 40  1  0  0  0  0
 18 19  1  0  0  0  0
 18 28  2  0  0  0  0
 19 20  2  0  0  0  0
 19 21  2  0  0  0  0
 19 22  1  0  0  0  0
 22 23  1  0  0  0  0
 23 24  1  0  0  0  0
 23 41  1  0  0  0  0
 23 42  1  0  0  0  0
 24 25  1  0  0  0  0
 24 43  1  0  0  0  0
 24 44  1  0  0  0  0
 25 26  1  0  0  0  0
 25 45  1  0  0  0  0
 25 46  1  0  0  0  0
 26 27  1  0  0  0  0
 26 47  1  0  0  0  0
 26 48  1  0  0  0  0
 27 22  1  0  0  0  0
 27 49  1  0  0  0  0
 27 50  1  0  0  0  0
 28 14  1  0  0  0  0
 28 51  1  0  0  0  0
M  END
$$$$
