
 OpenBabel05232313393D

 53 56  0  0  0  0  0  0  0  0999 V2000
    2.2786    0.1023   -0.3531 O   0  0  0  0  0  0  0  0  0  0  0  0
    2.7622    0.3246   -1.4894 C   0  0  0  0  0  0  0  0  0  0  0  0
    4.2021    0.6950   -1.7011 C   0  0  0  0  0  0  0  0  0  0  0  0
    4.8873    0.7486   -0.4407 C   0  0  0  0  0  0  0  0  0  0  0  0
    5.1808    1.9279    0.1265 N   0  0  0  0  0  0  0  0  0  0  0  0
    5.8101    1.9936    1.2888 N   0  0  0  0  0  0  0  0  0  0  0  0
    6.1926    0.9186    1.9707 C   0  0  0  0  0  0  0  0  0  0  0  0
    6.7938    1.0020    3.0816 O   0  0  0  0  0  0  0  0  0  0  0  0
    5.9265   -0.3399    1.4522 C   0  0  0  0  0  0  0  0  0  0  0  0
    6.3026   -1.4838    2.1206 C   0  0  0  0  0  0  0  0  0  0  0  0
    6.0024   -2.6993    1.5401 C   0  0  0  0  0  0  0  0  0  0  0  0
    5.3413   -2.7793    0.3188 C   0  0  0  0  0  0  0  0  0  0  0  0
    4.9739   -1.6207   -0.3331 C   0  0  0  0  0  0  0  0  0  0  0  0
    5.2629   -0.3962    0.2269 C   0  0  0  0  0  0  0  0  0  0  0  0
    1.8876    0.2144   -2.6059 N   0  0  0  0  0  0  0  0  0  0  0  0
    0.4920   -0.1359   -2.4689 C   0  0  0  0  0  0  0  0  0  0  0  0
   -0.1777    0.8756   -1.6345 C   0  0  0  0  0  0  0  0  0  0  0  0
    0.5022    1.8364   -1.1914 O   0  0  0  0  0  0  0  0  0  0  0  0
   -1.5797    0.7907   -1.3173 N   0  0  0  0  0  0  0  0  0  0  0  0
   -2.1807    1.8156   -0.4924 C   0  0  0  0  0  0  0  0  0  0  0  0
   -3.0679    1.0811    0.5243 C   0  0  0  0  0  0  0  0  0  0  0  0
   -4.0987    0.3754   -0.2149 N   0  0  0  0  0  0  0  0  0  0  0  0
   -5.3248    0.0476    0.4213 C   0  0  0  0  0  0  0  0  0  0  0  0
   -6.4167   -0.4611   -0.2469 C   0  0  0  0  0  0  0  0  0  0  0  0
   -7.5982   -0.7778    0.4024 C   0  0  0  0  0  0  0  0  0  0  0  0
   -7.7306   -0.5942    1.7603 C   0  0  0  0  0  0  0  0  0  0  0  0
   -8.8978   -0.9052    2.4095 F   0  0  0  0  0  0  0  0  0  0  0  0
   -6.6549   -0.0864    2.4573 C   0  0  0  0  0  0  0  0  0  0  0  0
   -5.4752    0.2265    1.7906 C   0  0  0  0  0  0  0  0  0  0  0  0
   -3.8806   -0.0016   -1.5962 C   0  0  0  0  0  0  0  0  0  0  0  0
   -2.3847   -0.2828   -1.8006 C   0  0  0  0  0  0  0  0  0  0  0  0
    4.1746    1.7077   -2.1569 H   0  0  0  0  0  0  0  0  0  0  0  0
    4.5723    0.0238   -2.4729 H   0  0  0  0  0  0  0  0  0  0  0  0
    6.0114    2.9430    1.6811 H   0  0  0  0  0  0  0  0  0  0  0  0
    6.8120   -1.3772    3.0628 H   0  0  0  0  0  0  0  0  0  0  0  0
    6.2968   -3.5835    2.0632 H   0  0  0  0  0  0  0  0  0  0  0  0
    5.1181   -3.7413   -0.1137 H   0  0  0  0  0  0  0  0  0  0  0  0
    4.4562   -1.6309   -1.2885 H   0  0  0  0  0  0  0  0  0  0  0  0
    2.2526    0.3910   -3.5756 H   0  0  0  0  0  0  0  0  0  0  0  0
    0.3655   -1.1156   -1.9388 H   0  0  0  0  0  0  0  0  0  0  0  0
    0.0197   -0.2617   -3.4607 H   0  0  0  0  0  0  0  0  0  0  0  0
   -1.4344    2.4224    0.0346 H   0  0  0  0  0  0  0  0  0  0  0  0
   -2.8813    2.4338   -1.0917 H   0  0  0  0  0  0  0  0  0  0  0  0
   -2.4186    0.3246    1.0050 H   0  0  0  0  0  0  0  0  0  0  0  0
   -3.4817    1.8298    1.2348 H   0  0  0  0  0  0  0  0  0  0  0  0
   -6.3217   -0.6083   -1.3282 H   0  0  0  0  0  0  0  0  0  0  0  0
   -8.4300   -1.1719   -0.1455 H   0  0  0  0  0  0  0  0  0  0  0  0
   -6.7613    0.0544    3.5087 H   0  0  0  0  0  0  0  0  0  0  0  0
   -4.6485    0.6181    2.3481 H   0  0  0  0  0  0  0  0  0  0  0  0
   -4.1609    0.8684   -2.2266 H   0  0  0  0  0  0  0  0  0  0  0  0
   -4.4188   -0.9219   -1.8872 H   0  0  0  0  0  0  0  0  0  0  0  0
   -2.1914   -1.2487   -1.3304 H   0  0  0  0  0  0  0  0  0  0  0  0
   -2.2614   -0.3678   -2.9114 H   0  0  0  0  0  0  0  0  0  0  0  0
  1  2  2  0  0  0  0
  2  3  1  0  0  0  0
  2 15  1  0  0  0  0
  3  4  1  0  0  0  0
  3 32  1  0  0  0  0
  3 33  1  0  0  0  0
  4  5  2  0  0  0  0
  5  6  1  0  0  0  0
  6  7  1  0  0  0  0
  6 34  1  0  0  0  0
  7  8  2  0  0  0  0
  7  9  1  0  0  0  0
  9 10  2  0  0  0  0
 10 11  1  0  0  0  0
 10 35  1  0  0  0  0
 11 12  2  0  0  0  0
 11 36  1  0  0  0  0
 12 13  1  0  0  0  0
 12 37  1  0  0  0  0
 13 14  2  0  0  0  0
 13 38  1  0  0  0  0
 14  4  1  0  0  0  0
 14  9  1  0  0  0  0
 15 16  1  0  0  0  0
 15 39  1  0  0  0  0
 16 17  1  0  0  0  0
 16 40  1  0  0  0  0
 16 41  1  0  0  0  0
 17 18  2  0  0  0  0
 17 19  1  0  0  0  0
 19 20  1  0  0  0  0
 20 21  1  0  0  0  0
 20 42  1  0  0  0  0
 20 43  1  0  0  0  0
 21 22  1  0  0  0  0
 21 44  1  0  0  0  0
 21 45  1  0  0  0  0
 22 23  1  0  0  0  0
 22 30  1  0  0  0  0
 23 24  2  0  0  0  0
 24 25  1  0  0  0  0
 24 46  1  0  0  0  0
 25 26  2  0  0  0  0
 25 47  1  0  0  0  0
 26 27  1  0  0  0  0
 26 28  1  0  0  0  0
 28 29  2  0  0  0  0
 28 48  1  0  0  0  0
 29 23  1  0  0  0  0
 29 49  1  0  0  0  0
 30 31  1  0  0  0  0
 30 50  1  0  0  0  0
 30 51  1  0  0  0  0
 31 19  1  0  0  0  0
 31 52  1  0  0  0  0
 31 53  1  0  0  0  0
M  END
$$$$
