
 OpenBabel05232313403D

 34 36  0  0  0  0  0  0  0  0999 V2000
   -0.2916    2.7018    1.4604 N   0  0  0  0  0  0  0  0  0  0  0  0
   -1.2179    1.8552    0.8000 C   0  0  0  0  0  0  0  0  0  0  0  0
   -0.8589    0.5362    0.5987 C   0  0  0  0  0  0  0  0  0  0  0  0
    0.3905   -0.0040    1.0225 N   0  0  0  0  0  0  0  0  0  0  0  0
    1.5064    0.0282    0.1514 C   0  0  0  0  0  0  0  0  0  0  0  0
    1.3129    0.6060   -1.1149 C   0  0  0  0  0  0  0  0  0  0  0  0
    2.3501    0.6621   -1.9884 C   0  0  0  0  0  0  0  0  0  0  0  0
    3.5871    0.1616   -1.6519 C   0  0  0  0  0  0  0  0  0  0  0  0
    3.7572   -0.3954   -0.4197 C   0  0  0  0  0  0  0  0  0  0  0  0
    2.7343   -0.4801    0.5132 C   0  0  0  0  0  0  0  0  0  0  0  0
    2.9968   -1.0900    1.8082 C   0  0  0  0  0  0  0  0  0  0  0  0
    4.1881   -1.5207    2.0076 O   0  0  0  0  0  0  0  0  0  0  0  0
    2.1422   -1.2652    2.8414 O   0  0  0  0  0  0  0  0  0  0  0  0
   -1.7966   -0.2521   -0.0507 C   0  0  0  0  0  0  0  0  0  0  0  0
   -1.5535   -1.5844   -0.3088 C   0  0  0  0  0  0  0  0  0  0  0  0
   -2.4639   -2.3880   -0.9499 C   0  0  0  0  0  0  0  0  0  0  0  0
   -3.6868   -1.8572   -1.3642 C   0  0  0  0  0  0  0  0  0  0  0  0
   -3.9176   -0.5246   -1.1003 C   0  0  0  0  0  0  0  0  0  0  0  0
   -3.0012    0.2871   -0.4542 C   0  0  0  0  0  0  0  0  0  0  0  0
   -3.2635    1.5563   -0.2223 O   0  0  0  0  0  0  0  0  0  0  0  0
   -2.4332    2.3612    0.3823 C   0  0  0  0  0  0  0  0  0  0  0  0
   -2.7815    3.5583    0.5547 O   0  0  0  0  0  0  0  0  0  0  0  0
    0.6322    2.8590    1.0213 H   0  0  0  0  0  0  0  0  0  0  0  0
   -0.5194    3.1649    2.3702 H   0  0  0  0  0  0  0  0  0  0  0  0
    0.4093   -0.3972    1.9641 H   0  0  0  0  0  0  0  0  0  0  0  0
    0.3387    1.0090   -1.4012 H   0  0  0  0  0  0  0  0  0  0  0  0
    2.2540    1.1047   -2.9952 H   0  0  0  0  0  0  0  0  0  0  0  0
    4.4281    0.2058   -2.3572 H   0  0  0  0  0  0  0  0  0  0  0  0
    4.7417   -0.7922   -0.1558 H   0  0  0  0  0  0  0  0  0  0  0  0
    2.1762   -2.0639    3.4776 H   0  0  0  0  0  0  0  0  0  0  0  0
   -0.6032   -2.0501   -0.0017 H   0  0  0  0  0  0  0  0  0  0  0  0
   -2.2734   -3.4354   -1.1532 H   0  0  0  0  0  0  0  0  0  0  0  0
   -4.4220   -2.4596   -1.8690 H   0  0  0  0  0  0  0  0  0  0  0  0
   -4.8618   -0.0974   -1.4153 H   0  0  0  0  0  0  0  0  0  0  0  0
  1  2  1  0  0  0  0
  1 23  1  0  0  0  0
  1 24  1  0  0  0  0
  2  3  2  0  0  0  0
  3  4  1  0  0  0  0
  3 14  1  0  0  0  0
  4  5  1  0  0  0  0
  4 25  1  0  0  0  0
  5  6  2  0  0  0  0
  6  7  1  0  0  0  0
  6 26  1  0  0  0  0
  7  8  2  0  0  0  0
  7 27  1  0  0  0  0
  8  9  1  0  0  0  0
  8 28  1  0  0  0  0
  9 10  2  0  0  0  0
  9 29  1  0  0  0  0
 10 11  1  0  0  0  0
 10  5  1  0  0  0  0
 11 12  2  0  0  0  0
 11 13  1  0  0  0  0
 13 30  1  0  0  0  0
 14 15  2  0  0  0  0
 15 16  1  0  0  0  0
 15 31  1  0  0  0  0
 16 17  2  0  0  0  0
 16 32  1  0  0  0  0
 17 18  1  0  0  0  0
 17 33  1  0  0  0  0
 18 19  2  0  0  0  0
 18 34  1  0  0  0  0
 19 20  1  0  0  0  0
 19 14  1  0  0  0  0
 20 21  1  0  0  0  0
 21 22  2  0  0  0  0
 21  2  1  0  0  0  0
M  END
$$$$
