
 OpenBabel05232313403D

 38 40  0  0  0  0  0  0  0  0999 V2000
    0.1757    0.1748    1.6708 O   0  0  0  0  0  0  0  0  0  0  0  0
    0.3126   -0.6825    0.7987 C   0  0  0  0  0  0  0  0  0  0  0  0
    1.5517   -1.5032    0.6524 C   0  0  0  0  0  0  0  0  0  0  0  0
    2.5547   -0.9098   -0.2290 C   0  0  0  0  0  0  0  0  0  0  0  0
    2.4320   -1.2903   -1.5565 N   0  0  0  0  0  0  0  0  0  0  0  0
    3.2147   -0.7979   -2.4885 N   0  0  0  0  0  0  0  0  0  0  0  0
    4.1435    0.0807   -2.1759 C   0  0  0  0  0  0  0  0  0  0  0  0
    4.9054    0.5833   -3.0556 O   0  0  0  0  0  0  0  0  0  0  0  0
    4.3264    0.5094   -0.8557 C   0  0  0  0  0  0  0  0  0  0  0  0
    5.3013    1.3939   -0.5153 C   0  0  0  0  0  0  0  0  0  0  0  0
    5.4579    1.7606    0.8062 C   0  0  0  0  0  0  0  0  0  0  0  0
    4.6261    1.2255    1.7981 C   0  0  0  0  0  0  0  0  0  0  0  0
    3.6410    0.3367    1.4758 C   0  0  0  0  0  0  0  0  0  0  0  0
    3.4937   -0.0186    0.1281 C   0  0  0  0  0  0  0  0  0  0  0  0
   -0.7052   -1.0165   -0.1968 N   0  0  0  0  0  0  0  0  0  0  0  0
   -1.8493   -0.3076   -0.0879 O   0  0  0  0  0  0  0  0  0  0  0  0
   -2.9865   -1.1457   -0.2343 C   0  0  0  0  0  0  0  0  0  0  0  0
   -4.1994   -0.3392   -0.0673 C   0  0  0  0  0  0  0  0  0  0  0  0
   -5.3055   -0.4283   -0.8598 C   0  0  0  0  0  0  0  0  0  0  0  0
   -6.4329    0.3732   -0.6258 C   0  0  0  0  0  0  0  0  0  0  0  0
   -6.4388    1.2644    0.4105 C   0  0  0  0  0  0  0  0  0  0  0  0
   -5.3171    1.3545    1.2179 C   0  0  0  0  0  0  0  0  0  0  0  0
   -4.2168    0.5737    0.9908 C   0  0  0  0  0  0  0  0  0  0  0  0
    1.2308   -2.4831    0.2426 H   0  0  0  0  0  0  0  0  0  0  0  0
    1.9583   -1.7634    1.6648 H   0  0  0  0  0  0  0  0  0  0  0  0
    3.1115   -1.1182   -3.5088 H   0  0  0  0  0  0  0  0  0  0  0  0
    5.9528    1.8130   -1.2836 H   0  0  0  0  0  0  0  0  0  0  0  0
    6.2524    2.4609    1.0645 H   0  0  0  0  0  0  0  0  0  0  0  0
    4.7687    1.5321    2.8217 H   0  0  0  0  0  0  0  0  0  0  0  0
    2.9688   -0.1029    2.1826 H   0  0  0  0  0  0  0  0  0  0  0  0
   -0.5546   -1.7303   -0.9372 H   0  0  0  0  0  0  0  0  0  0  0  0
   -2.8596   -1.5890   -1.2543 H   0  0  0  0  0  0  0  0  0  0  0  0
   -2.8920   -1.9914    0.4955 H   0  0  0  0  0  0  0  0  0  0  0  0
   -5.3473   -1.1010   -1.6755 H   0  0  0  0  0  0  0  0  0  0  0  0
   -7.3282    0.3149   -1.2477 H   0  0  0  0  0  0  0  0  0  0  0  0
   -7.3120    1.8813    0.5936 H   0  0  0  0  0  0  0  0  0  0  0  0
   -5.3084    2.0458    2.0357 H   0  0  0  0  0  0  0  0  0  0  0  0
   -3.3264    0.6401    1.6279 H   0  0  0  0  0  0  0  0  0  0  0  0
  1  2  2  0  0  0  0
  2  3  1  0  0  0  0
  2 15  1  0  0  0  0
  3  4  1  0  0  0  0
  3 24  1  0  0  0  0
  3 25  1  0  0  0  0
  4  5  2  0  0  0  0
  5  6  1  0  0  0  0
  6  7  1  0  0  0  0
  6 26  1  0  0  0  0
  7  8  2  0  0  0  0
  7  9  1  0  0  0  0
  9 10  2  0  0  0  0
 10 11  1  0  0  0  0
 10 27  1  0  0  0  0
 11 12  2  0  0  0  0
 11 28  1  0  0  0  0
 12 13  1  0  0  0  0
 12 29  1  0  0  0  0
 13 14  2  0  0  0  0
 13 30  1  0  0  0  0
 14  4  1  0  0  0  0
 14  9  1  0  0  0  0
 15 16  1  0  0  0  0
 15 31  1  0  0  0  0
 16 17  1  0  0  0  0
 17 18  1  0  0  0  0
 17 32  1  0  0  0  0
 17 33  1  0  0  0  0
 18 19  2  0  0  0  0
 19 20  1  0  0  0  0
 19 34  1  0  0  0  0
 20 21  2  0  0  0  0
 20 35  1  0  0  0  0
 21 22  1  0  0  0  0
 21 36  1  0  0  0  0
 22 23  2  0  0  0  0
 22 37  1  0  0  0  0
 23 18  1  0  0  0  0
 23 38  1  0  0  0  0
M  END
$$$$
