
 OpenBabel05232313393D

 34 36  0  0  0  0  0  0  0  0999 V2000
    4.0317   -0.4174    2.4101 N   0  0  0  0  0  0  0  0  0  0  0  0
    5.0950   -0.0243    1.3268 S   0  0  0  0  0  0  0  0  0  0  0  0
    4.5766   -0.4321   -0.2435 O   0  0  0  0  0  0  0  0  0  0  0  0
    3.5153    0.1568   -0.8959 C   0  0  0  0  0  0  0  0  0  0  0  0
    3.6648    1.2724   -1.6897 C   0  0  0  0  0  0  0  0  0  0  0  0
    2.5591    1.8094   -2.3129 C   0  0  0  0  0  0  0  0  0  0  0  0
    1.2900    1.2663   -2.1713 C   0  0  0  0  0  0  0  0  0  0  0  0
    1.1502    0.1530   -1.3772 C   0  0  0  0  0  0  0  0  0  0  0  0
   -0.1517   -0.4857   -1.1717 C   0  0  0  0  0  0  0  0  0  0  0  0
   -0.9011    0.0486   -0.0132 C   0  0  0  0  0  0  0  0  0  0  0  0
   -0.4482    1.0251    0.7849 N   0  0  0  0  0  0  0  0  0  0  0  0
   -1.1606    1.4735    1.8176 N   0  0  0  0  0  0  0  0  0  0  0  0
   -2.3734    0.9401    2.0805 C   0  0  0  0  0  0  0  0  0  0  0  0
   -3.0642    1.3481    3.0510 O   0  0  0  0  0  0  0  0  0  0  0  0
   -2.8855   -0.0630    1.2946 C   0  0  0  0  0  0  0  0  0  0  0  0
   -4.1244   -0.6039    1.5677 C   0  0  0  0  0  0  0  0  0  0  0  0
   -4.6095   -1.6048    0.7648 C   0  0  0  0  0  0  0  0  0  0  0  0
   -3.8677   -2.0546   -0.2908 C   0  0  0  0  0  0  0  0  0  0  0  0
   -2.6439   -1.5163   -0.5559 C   0  0  0  0  0  0  0  0  0  0  0  0
   -2.1388   -0.5083    0.2407 C   0  0  0  0  0  0  0  0  0  0  0  0
    2.2594   -0.3768   -0.7586 C   0  0  0  0  0  0  0  0  0  0  0  0
    3.1612   -0.8608    2.1170 H   0  0  0  0  0  0  0  0  0  0  0  0
    5.3379    1.3553    1.3531 H   0  0  0  0  0  0  0  0  0  0  0  0
    4.6655    1.7121   -1.8099 H   0  0  0  0  0  0  0  0  0  0  0  0
    2.6862    2.6947   -2.9411 H   0  0  0  0  0  0  0  0  0  0  0  0
    0.4400    1.7280   -2.6865 H   0  0  0  0  0  0  0  0  0  0  0  0
   -0.7602   -0.4079   -2.1136 H   0  0  0  0  0  0  0  0  0  0  0  0
   -0.0094   -1.5815   -0.9766 H   0  0  0  0  0  0  0  0  0  0  0  0
   -0.8252    2.2235    2.4396 H   0  0  0  0  0  0  0  0  0  0  0  0
   -4.6973   -0.2287    2.4150 H   0  0  0  0  0  0  0  0  0  0  0  0
   -5.5873   -2.0191    0.9950 H   0  0  0  0  0  0  0  0  0  0  0  0
   -4.2519   -2.8454   -0.9245 H   0  0  0  0  0  0  0  0  0  0  0  0
   -2.0830   -1.9076   -1.4131 H   0  0  0  0  0  0  0  0  0  0  0  0
    2.1505   -1.2685   -0.1220 H   0  0  0  0  0  0  0  0  0  0  0  0
  1  2  2  0  0  0  0
  1 22  1  0  0  0  0
  2  3  1  0  0  0  0
  2 23  1  0  0  0  0
  3  4  1  0  0  0  0
  4  5  2  0  0  0  0
  5  6  1  0  0  0  0
  5 24  1  0  0  0  0
  6  7  2  0  0  0  0
  6 25  1  0  0  0  0
  7  8  1  0  0  0  0
  7 26  1  0  0  0  0
  8  9  1  0  0  0  0
  8 21  2  0  0  0  0
  9 10  1  0  0  0  0
  9 27  1  0  0  0  0
  9 28  1  0  0  0  0
 10 11  2  0  0  0  0
 11 12  1  0  0  0  0
 12 13  1  0  0  0  0
 12 29  1  0  0  0  0
 13 14  2  0  0  0  0
 13 15  1  0  0  0  0
 15 16  2  0  0  0  0
 16 17  1  0  0  0  0
 16 30  1  0  0  0  0
 17 18  2  0  0  0  0
 17 31  1  0  0  0  0
 18 19  1  0  0  0  0
 18 32  1  0  0  0  0
 19 20  2  0  0  0  0
 19 33  1  0  0  0  0
 20 10  1  0  0  0  0
 20 15  1  0  0  0  0
 21  4  1  0  0  0  0
 21 34  1  0  0  0  0
M  END
$$$$
