
 OpenBabel05232313403D

 48 51  0  0  0  0  0  0  0  0999 V2000
    4.5598    1.7914    2.0129 O   0  0  0  0  0  0  0  0  0  0  0  0
    5.1598    1.8367    0.9237 C   0  0  0  0  0  0  0  0  0  0  0  0
    6.1373    2.8418    0.7035 N   0  0  0  0  0  0  0  0  0  0  0  0
    6.4146    3.7456    1.6767 F   0  0  0  0  0  0  0  0  0  0  0  0
    4.8615    0.8674   -0.1181 C   0  0  0  0  0  0  0  0  0  0  0  0
    5.5937    0.6754   -1.2539 C   0  0  0  0  0  0  0  0  0  0  0  0
    5.1955   -0.2856   -2.1871 C   0  0  0  0  0  0  0  0  0  0  0  0
    4.0774   -1.0533   -1.9970 C   0  0  0  0  0  0  0  0  0  0  0  0
    3.3254   -0.8772   -0.8617 C   0  0  0  0  0  0  0  0  0  0  0  0
    2.1192   -1.6859   -0.6550 C   0  0  0  0  0  0  0  0  0  0  0  0
    1.9911   -2.9747   -1.1215 C   0  0  0  0  0  0  0  0  0  0  0  0
    0.8134   -3.6866   -0.9033 C   0  0  0  0  0  0  0  0  0  0  0  0
   -0.2436   -3.1264   -0.2219 C   0  0  0  0  0  0  0  0  0  0  0  0
   -0.1224   -1.8466    0.2446 C   0  0  0  0  0  0  0  0  0  0  0  0
   -1.2134   -1.1314    0.9887 C   0  0  0  0  0  0  0  0  0  0  0  0
   -1.9522   -0.2127    0.1179 C   0  0  0  0  0  0  0  0  0  0  0  0
   -1.5887   -0.0091   -1.1624 N   0  0  0  0  0  0  0  0  0  0  0  0
   -2.2315    0.8280   -1.9616 N   0  0  0  0  0  0  0  0  0  0  0  0
   -3.3032    1.5391   -1.5438 C   0  0  0  0  0  0  0  0  0  0  0  0
   -3.9325    2.3466   -2.2956 O   0  0  0  0  0  0  0  0  0  0  0  0
   -3.6994    1.3466   -0.2248 C   0  0  0  0  0  0  0  0  0  0  0  0
   -3.0256    0.4738    0.6013 C   0  0  0  0  0  0  0  0  0  0  0  0
   -3.4705    0.2794    2.0056 C   0  0  0  0  0  0  0  0  0  0  0  0
   -4.9885    0.1525    2.0031 C   0  0  0  0  0  0  0  0  0  0  0  0
   -5.6911    1.0820    1.0999 C   0  0  0  0  0  0  0  0  0  0  0  0
   -4.8568    2.0679    0.3604 C   0  0  0  0  0  0  0  0  0  0  0  0
    1.0423   -1.1485    0.0263 C   0  0  0  0  0  0  0  0  0  0  0  0
    3.7285    0.0707    0.0475 C   0  0  0  0  0  0  0  0  0  0  0  0
    6.6219    2.8617   -0.2144 H   0  0  0  0  0  0  0  0  0  0  0  0
    6.4778    1.2716   -1.4172 H   0  0  0  0  0  0  0  0  0  0  0  0
    5.7981   -0.4053   -3.0670 H   0  0  0  0  0  0  0  0  0  0  0  0
    3.8017   -1.7761   -2.7273 H   0  0  0  0  0  0  0  0  0  0  0  0
    2.8254   -3.4058   -1.6539 H   0  0  0  0  0  0  0  0  0  0  0  0
    0.7419   -4.6914   -1.2793 H   0  0  0  0  0  0  0  0  0  0  0  0
   -1.1685   -3.6666   -0.0435 H   0  0  0  0  0  0  0  0  0  0  0  0
   -1.8423   -1.9173    1.4395 H   0  0  0  0  0  0  0  0  0  0  0  0
   -0.7930   -0.5405    1.8286 H   0  0  0  0  0  0  0  0  0  0  0  0
   -1.9149    0.9561   -2.9448 H   0  0  0  0  0  0  0  0  0  0  0  0
   -3.1551    1.1130    2.6658 H   0  0  0  0  0  0  0  0  0  0  0  0
   -3.1109   -0.6793    2.4371 H   0  0  0  0  0  0  0  0  0  0  0  0
   -5.3085    0.2134    3.0667 H   0  0  0  0  0  0  0  0  0  0  0  0
   -5.2307   -0.9025    1.6832 H   0  0  0  0  0  0  0  0  0  0  0  0
   -6.3140    0.5377    0.3316 H   0  0  0  0  0  0  0  0  0  0  0  0
   -6.4659    1.6542    1.6906 H   0  0  0  0  0  0  0  0  0  0  0  0
   -4.4493    2.8807    1.0030 H   0  0  0  0  0  0  0  0  0  0  0  0
   -5.4825    2.5144   -0.4396 H   0  0  0  0  0  0  0  0  0  0  0  0
    1.1371   -0.1266    0.3993 H   0  0  0  0  0  0  0  0  0  0  0  0
    3.1317    0.2017    0.9370 H   0  0  0  0  0  0  0  0  0  0  0  0
  1  2  2  0  0  0  0
  2  3  1  0  0  0  0
  2  5  1  0  0  0  0
  3  4  1  0  0  0  0
  3 29  1  0  0  0  0
  5  6  2  0  0  0  0
  6  7  1  0  0  0  0
  6 30  1  0  0  0  0
  7  8  2  0  0  0  0
  7 31  1  0  0  0  0
  8  9  1  0  0  0  0
  8 32  1  0  0  0  0
  9 10  1  0  0  0  0
  9 28  2  0  0  0  0
 10 11  2  0  0  0  0
 11 12  1  0  0  0  0
 11 33  1  0  0  0  0
 12 13  2  0  0  0  0
 12 34  1  0  0  0  0
 13 14  1  0  0  0  0
 13 35  1  0  0  0  0
 14 15  1  0  0  0  0
 14 27  2  0  0  0  0
 15 16  1  0  0  0  0
 15 36  1  0  0  0  0
 15 37  1  0  0  0  0
 16 17  2  0  0  0  0
 17 18  1  0  0  0  0
 18 19  1  0  0  0  0
 18 38  1  0  0  0  0
 19 20  2  0  0  0  0
 19 21  1  0  0  0  0
 21 22  2  0  0  0  0
 22 23  1  0  0  0  0
 22 16  1  0  0  0  0
 23 24  1  0  0  0  0
 23 39  1  0  0  0  0
 23 40  1  0  0  0  0
 24 25  1  0  0  0  0
 24 41  1  0  0  0  0
 24 42  1  0  0  0  0
 25 26  1  0  0  0  0
 25 43  1  0  0  0  0
 25 44  1  0  0  0  0
 26 21  1  0  0  0  0
 26 45  1  0  0  0  0
 26 46  1  0  0  0  0
 27 10  1  0  0  0  0
 27 47  1  0  0  0  0
 28  5  1  0  0  0  0
 28 48  1  0  0  0  0
M  END
$$$$
