
 OpenBabel05232313403D

 28 29  0  0  0  0  0  0  0  0999 V2000
    0.6335    2.5901   -0.4633 O   0  0  0  0  0  0  0  0  0  0  0  0
    0.6727    1.3259   -0.2590 C   0  0  0  0  0  0  0  0  0  0  0  0
   -0.5594    0.5835   -0.0259 C   0  0  0  0  0  0  0  0  0  0  0  0
   -0.6052   -0.6989    0.4384 C   0  0  0  0  0  0  0  0  0  0  0  0
   -1.8339   -1.3378    0.6413 C   0  0  0  0  0  0  0  0  0  0  0  0
   -1.8092   -2.6484    1.1161 O   0  0  0  0  0  0  0  0  0  0  0  0
   -3.0347   -0.7114    0.3858 C   0  0  0  0  0  0  0  0  0  0  0  0
   -4.2554   -1.3347    0.5830 O   0  0  0  0  0  0  0  0  0  0  0  0
   -2.9932    0.6036   -0.0894 C   0  0  0  0  0  0  0  0  0  0  0  0
   -4.2277    1.2531   -0.3521 N   0  3  0  0  0  0  0  0  0  0  0  0
   -5.1858    0.5918   -0.7276 O   0  0  0  0  0  0  0  0  0  0  0  0
   -4.3429    2.6278   -0.1782 O   0  5  0  0  0  0  0  0  0  0  0  0
   -1.7836    1.2096   -0.2814 C   0  0  0  0  0  0  0  0  0  0  0  0
    1.9693    0.7027   -0.2729 C   0  0  0  0  0  0  0  0  0  0  0  0
    2.9772    1.2173    0.5497 C   0  0  0  0  0  0  0  0  0  0  0  0
    4.2401    0.6629    0.5704 C   0  0  0  0  0  0  0  0  0  0  0  0
    4.4723   -0.4136   -0.2465 C   0  0  0  0  0  0  0  0  0  0  0  0
    3.4868   -0.9316   -1.0628 C   0  0  0  0  0  0  0  0  0  0  0  0
    2.2356   -0.3791   -1.0808 C   0  0  0  0  0  0  0  0  0  0  0  0
    1.2915   -0.9300   -1.8986 F   0  0  0  0  0  0  0  0  0  0  0  0
    0.3273   -1.2200    0.6497 H   0  0  0  0  0  0  0  0  0  0  0  0
   -2.6385   -3.1780    1.2866 H   0  0  0  0  0  0  0  0  0  0  0  0
   -4.3645   -2.2578    0.9148 H   0  0  0  0  0  0  0  0  0  0  0  0
   -1.7417    2.2349   -0.6524 H   0  0  0  0  0  0  0  0  0  0  0  0
    2.7955    2.0620    1.1962 H   0  0  0  0  0  0  0  0  0  0  0  0
    5.0417    1.0307    1.1821 H   0  0  0  0  0  0  0  0  0  0  0  0
    5.4576   -0.8601   -0.2400 H   0  0  0  0  0  0  0  0  0  0  0  0
    3.7745   -1.7943   -1.6832 H   0  0  0  0  0  0  0  0  0  0  0  0
  1  2  2  0  0  0  0
  2  3  1  0  0  0  0
  2 14  1  0  0  0  0
  3  4  2  0  0  0  0
  4  5  1  0  0  0  0
  4 21  1  0  0  0  0
  5  6  1  0  0  0  0
  5  7  2  0  0  0  0
  6 22  1  0  0  0  0
  7  8  1  0  0  0  0
  7  9  1  0  0  0  0
  8 23  1  0  0  0  0
  9 10  1  0  0  0  0
  9 13  2  0  0  0  0
 10 11  2  0  0  0  0
 10 12  1  0  0  0  0
 13  3  1  0  0  0  0
 13 24  1  0  0  0  0
 14 15  2  0  0  0  0
 15 16  1  0  0  0  0
 15 25  1  0  0  0  0
 16 17  2  0  0  0  0
 16 26  1  0  0  0  0
 17 18  1  0  0  0  0
 17 27  1  0  0  0  0
 18 19  2  0  0  0  0
 18 28  1  0  0  0  0
 19 20  1  0  0  0  0
 19 14  1  0  0  0  0
M  CHG  2  10   1  12  -1
M  END
$$$$
