
 OpenBabel05232313403D

 44 46  0  0  0  0  0  0  0  0999 V2000
    3.3949    1.8693   -0.5716 O   0  0  0  0  0  0  0  0  0  0  0  0
    4.1063    0.8563   -0.3170 C   0  0  0  0  0  0  0  0  0  0  0  0
    3.4511   -0.4010   -0.3625 N   0  0  0  0  0  0  0  0  0  0  0  0
    2.0925   -0.5534   -0.6684 N   0  0  0  0  0  0  0  0  0  0  0  0
    1.3651   -1.5585    0.0131 C   0  0  0  0  0  0  0  0  0  0  0  0
    1.9784   -2.2595    0.8557 O   0  0  0  0  0  0  0  0  0  0  0  0
   -0.0424   -1.8272   -0.2025 C   0  0  0  0  0  0  0  0  0  0  0  0
   -0.6723   -2.8587    0.4564 C   0  0  0  0  0  0  0  0  0  0  0  0
   -2.0043   -3.1400    0.2757 C   0  0  0  0  0  0  0  0  0  0  0  0
   -2.7388   -2.3450   -0.6111 C   0  0  0  0  0  0  0  0  0  0  0  0
   -2.1443   -1.3096   -1.2839 C   0  0  0  0  0  0  0  0  0  0  0  0
   -2.9648   -0.2560   -2.4012 S   0  0  0  0  0  0  0  0  0  0  0  0
   -4.1357   -0.9413   -3.0494 O   0  0  0  0  0  0  0  0  0  0  0  0
   -1.9831    0.0858   -3.4903 O   0  0  0  0  0  0  0  0  0  0  0  0
   -3.4939    1.1433   -1.5634 N   0  0  0  0  0  0  0  0  0  0  0  0
   -4.4156    1.1270   -0.4920 C   0  0  0  0  0  0  0  0  0  0  0  0
   -5.2843    0.0840   -0.3059 C   0  0  0  0  0  0  0  0  0  0  0  0
   -6.2106    0.0271    0.7216 C   0  0  0  0  0  0  0  0  0  0  0  0
   -6.2579    1.0730    1.5980 C   0  0  0  0  0  0  0  0  0  0  0  0
   -5.3979    2.1334    1.4361 C   0  0  0  0  0  0  0  0  0  0  0  0
   -4.4892    2.1697    0.4124 C   0  0  0  0  0  0  0  0  0  0  0  0
   -3.6502    3.2143    0.2612 F   0  0  0  0  0  0  0  0  0  0  0  0
   -0.7867   -1.0751   -1.0566 C   0  0  0  0  0  0  0  0  0  0  0  0
    5.5364    1.0022    0.0066 C   0  0  0  0  0  0  0  0  0  0  0  0
    6.3634   -0.0590    0.2472 C   0  0  0  0  0  0  0  0  0  0  0  0
    7.6925    0.1068    0.5462 C   0  0  0  0  0  0  0  0  0  0  0  0
    8.2488    1.3217    0.6181 N   0  0  0  0  0  0  0  0  0  0  0  0
    7.4455    2.3719    0.3837 C   0  0  0  0  0  0  0  0  0  0  0  0
    6.1091    2.2688    0.0801 C   0  0  0  0  0  0  0  0  0  0  0  0
    3.9921   -1.2681   -0.1590 H   0  0  0  0  0  0  0  0  0  0  0  0
    1.6587    0.0551   -1.3691 H   0  0  0  0  0  0  0  0  0  0  0  0
   -0.1017   -3.4854    1.1534 H   0  0  0  0  0  0  0  0  0  0  0  0
   -2.5299   -3.9424    0.7772 H   0  0  0  0  0  0  0  0  0  0  0  0
   -3.7877   -2.5661   -0.7609 H   0  0  0  0  0  0  0  0  0  0  0  0
   -3.1315    2.1103   -1.8335 H   0  0  0  0  0  0  0  0  0  0  0  0
   -5.2370   -0.7226   -1.0049 H   0  0  0  0  0  0  0  0  0  0  0  0
   -6.8593   -0.8454    0.7883 H   0  0  0  0  0  0  0  0  0  0  0  0
   -6.9660    1.0735    2.4178 H   0  0  0  0  0  0  0  0  0  0  0  0
   -5.4813    2.9355    2.1631 H   0  0  0  0  0  0  0  0  0  0  0  0
   -0.2973   -0.2565   -1.5799 H   0  0  0  0  0  0  0  0  0  0  0  0
    5.9644   -1.0545    0.2011 H   0  0  0  0  0  0  0  0  0  0  0  0
    8.2889   -0.7861    0.7254 H   0  0  0  0  0  0  0  0  0  0  0  0
    7.9079    3.3670    0.4434 H   0  0  0  0  0  0  0  0  0  0  0  0
    5.4676    3.1158   -0.1072 H   0  0  0  0  0  0  0  0  0  0  0  0
  1  2  2  0  0  0  0
  2  3  1  0  0  0  0
  2 24  1  0  0  0  0
  3  4  1  0  0  0  0
  3 30  1  0  0  0  0
  4  5  1  0  0  0  0
  4 31  1  0  0  0  0
  5  6  2  0  0  0  0
  5  7  1  0  0  0  0
  7  8  2  0  0  0  0
  8  9  1  0  0  0  0
  8 32  1  0  0  0  0
  9 10  2  0  0  0  0
  9 33  1  0  0  0  0
 10 11  1  0  0  0  0
 10 34  1  0  0  0  0
 11 12  1  0  0  0  0
 11 23  2  0  0  0  0
 12 13  2  0  0  0  0
 12 14  2  0  0  0  0
 12 15  1  0  0  0  0
 15 16  1  0  0  0  0
 15 35  1  0  0  0  0
 16 17  2  0  0  0  0
 17 18  1  0  0  0  0
 17 36  1  0  0  0  0
 18 19  2  0  0  0  0
 18 37  1  0  0  0  0
 19 20  1  0  0  0  0
 19 38  1  0  0  0  0
 20 21  2  0  0  0  0
 20 39  1  0  0  0  0
 21 22  1  0  0  0  0
 21 16  1  0  0  0  0
 23  7  1  0  0  0  0
 23 40  1  0  0  0  0
 24 25  2  0  0  0  0
 25 26  1  0  0  0  0
 25 41  1  0  0  0  0
 26 27  2  0  0  0  0
 26 42  1  0  0  0  0
 27 28  1  0  0  0  0
 28 29  2  0  0  0  0
 28 43  1  0  0  0  0
 29 24  1  0  0  0  0
 29 44  1  0  0  0  0
M  END
$$$$
