
 OpenBabel05232313403D

 48 52  0  0  0  0  0  0  0  0999 V2000
    1.7839   -1.9291   -2.1235 O   0  0  0  0  0  0  0  0  0  0  0  0
    2.4915   -1.3317   -1.2817 C   0  0  0  0  0  0  0  0  0  0  0  0
    3.9651   -1.1900   -1.3022 C   0  0  0  0  0  0  0  0  0  0  0  0
    4.3637   -0.4977   -0.2538 C   0  0  0  0  0  0  0  0  0  0  0  0
    5.7696   -0.1783    0.0233 C   0  0  0  0  0  0  0  0  0  0  0  0
    6.7546   -0.5755   -0.8523 C   0  0  0  0  0  0  0  0  0  0  0  0
    8.0723   -0.2892   -0.5747 C   0  0  0  0  0  0  0  0  0  0  0  0
    8.4688    0.3900    0.5606 C   0  0  0  0  0  0  0  0  0  0  0  0
    7.4922    0.7914    1.4416 C   0  0  0  0  0  0  0  0  0  0  0  0
    6.1722    0.5015    1.1568 C   0  0  0  0  0  0  0  0  0  0  0  0
    3.1764   -0.1469    0.5106 C   0  0  0  0  0  0  0  0  0  0  0  0
    3.1537    0.5159    1.5788 O   0  0  0  0  0  0  0  0  0  0  0  0
    2.0116   -0.6638   -0.1247 N   0  0  0  0  0  0  0  0  0  0  0  0
    0.6390   -0.5555    0.3044 C   0  0  0  0  0  0  0  0  0  0  0  0
    0.2956   -0.3611    1.6231 C   0  0  0  0  0  0  0  0  0  0  0  0
   -0.9969   -0.2670    2.0830 C   0  0  0  0  0  0  0  0  0  0  0  0
   -2.0029   -0.3841    1.0930 C   0  0  0  0  0  0  0  0  0  0  0  0
   -1.7051   -0.5779   -0.2210 C   0  0  0  0  0  0  0  0  0  0  0  0
   -2.7504   -0.7436   -1.2551 C   0  0  0  0  0  0  0  0  0  0  0  0
   -3.7651    0.3242   -1.1952 C   0  0  0  0  0  0  0  0  0  0  0  0
   -3.5114    1.4776   -1.8815 N   0  0  0  0  0  0  0  0  0  0  0  0
   -4.3390    2.4890   -1.8177 N   0  0  0  0  0  0  0  0  0  0  0  0
   -5.4585    2.4424   -1.0873 C   0  0  0  0  0  0  0  0  0  0  0  0
   -6.2613    3.4362   -1.0304 O   0  0  0  0  0  0  0  0  0  0  0  0
   -5.7766    1.3048   -0.3704 C   0  0  0  0  0  0  0  0  0  0  0  0
   -6.9309    1.2215    0.3694 C   0  0  0  0  0  0  0  0  0  0  0  0
   -7.2232    0.0490    1.0539 C   0  0  0  0  0  0  0  0  0  0  0  0
   -6.3492   -1.0294    0.9860 C   0  0  0  0  0  0  0  0  0  0  0  0
   -5.1949   -0.9531    0.2521 C   0  0  0  0  0  0  0  0  0  0  0  0
   -4.8999    0.2253   -0.4345 C   0  0  0  0  0  0  0  0  0  0  0  0
   -0.3485   -0.6637   -0.6207 C   0  0  0  0  0  0  0  0  0  0  0  0
    4.5628   -1.6243   -2.1068 H   0  0  0  0  0  0  0  0  0  0  0  0
    6.4571   -1.1117   -1.7564 H   0  0  0  0  0  0  0  0  0  0  0  0
    8.8273   -0.6080   -1.2679 H   0  0  0  0  0  0  0  0  0  0  0  0
    9.5387    0.5898    0.7356 H   0  0  0  0  0  0  0  0  0  0  0  0
    7.7495    1.3251    2.3524 H   0  0  0  0  0  0  0  0  0  0  0  0
    5.3964    0.8140    1.8514 H   0  0  0  0  0  0  0  0  0  0  0  0
    1.1124   -0.2732    2.3414 H   0  0  0  0  0  0  0  0  0  0  0  0
   -1.2460   -0.1111    3.1285 H   0  0  0  0  0  0  0  0  0  0  0  0
   -2.9915   -0.2910    1.5130 H   0  0  0  0  0  0  0  0  0  0  0  0
   -2.2189   -0.6616   -2.2527 H   0  0  0  0  0  0  0  0  0  0  0  0
   -3.1988   -1.7386   -1.1483 H   0  0  0  0  0  0  0  0  0  0  0  0
   -4.1358    3.3711   -2.3504 H   0  0  0  0  0  0  0  0  0  0  0  0
   -7.5897    2.0825    0.3990 H   0  0  0  0  0  0  0  0  0  0  0  0
   -8.1323   -0.0072    1.6362 H   0  0  0  0  0  0  0  0  0  0  0  0
   -6.5718   -1.9621    1.5232 H   0  0  0  0  0  0  0  0  0  0  0  0
   -4.5147   -1.8160    0.2147 H   0  0  0  0  0  0  0  0  0  0  0  0
   -0.1412   -0.8092   -1.6618 H   0  0  0  0  0  0  0  0  0  0  0  0
  1  2  2  0  0  0  0
  2  3  1  0  0  0  0
  3  4  2  0  0  0  0
  3 32  1  0  0  0  0
  4  5  1  0  0  0  0
  4 11  1  0  0  0  0
  5  6  2  0  0  0  0
  6  7  1  0  0  0  0
  6 33  1  0  0  0  0
  7  8  2  0  0  0  0
  7 34  1  0  0  0  0
  8  9  1  0  0  0  0
  8 35  1  0  0  0  0
  9 10  2  0  0  0  0
  9 36  1  0  0  0  0
 10  5  1  0  0  0  0
 10 37  1  0  0  0  0
 11 12  2  0  0  0  0
 11 13  1  0  0  0  0
 13 14  1  0  0  0  0
 13  2  1  0  0  0  0
 14 15  2  0  0  0  0
 15 16  1  0  0  0  0
 15 38  1  0  0  0  0
 16 17  2  0  0  0  0
 16 39  1  0  0  0  0
 17 18  1  0  0  0  0
 17 40  1  0  0  0  0
 18 19  1  0  0  0  0
 18 31  2  0  0  0  0
 19 20  1  0  0  0  0
 19 41  1  0  0  0  0
 19 42  1  0  0  0  0
 20 21  2  0  0  0  0
 21 22  1  0  0  0  0
 22 23  1  0  0  0  0
 22 43  1  0  0  0  0
 23 24  2  0  0  0  0
 23 25  1  0  0  0  0
 25 26  2  0  0  0  0
 26 27  1  0  0  0  0
 26 44  1  0  0  0  0
 27 28  2  0  0  0  0
 27 45  1  0  0  0  0
 28 29  1  0  0  0  0
 28 46  1  0  0  0  0
 29 30  2  0  0  0  0
 29 47  1  0  0  0  0
 30 20  1  0  0  0  0
 30 25  1  0  0  0  0
 31 14  1  0  0  0  0
 31 48  1  0  0  0  0
M  END
$$$$
