
     RDKit          3D

 39 42  0  0  0  0  0  0  0  0999 V2000
   -3.9012    1.7217    2.8932 O   0  0  0  0  0  0  0  0  0  0  0  0
   -3.2329    0.8977    2.2167 C   0  0  0  0  0  0  0  0  0  0  0  0
   -2.1264    0.3253    2.7120 N   0  0  0  0  0  0  0  0  0  0  0  0
   -1.4618   -0.5166    1.9884 N   0  0  0  0  0  0  0  0  0  0  0  0
   -1.7780   -0.9053    0.7143 C   0  0  0  0  0  0  0  0  0  0  0  0
   -0.8741   -1.8207   -0.0254 C   0  0  0  0  0  0  0  0  0  0  0  0
    0.1694   -1.1553   -0.8164 C   0  0  0  0  0  0  0  0  0  0  0  0
    0.0458   -0.8909   -2.1405 C   0  0  0  0  0  0  0  0  0  0  0  0
    1.0623   -0.2468   -2.8716 C   0  0  0  0  0  0  0  0  0  0  0  0
    2.2166    0.1324   -2.2528 C   0  0  0  0  0  0  0  0  0  0  0  0
    3.2155    0.7574   -2.9462 F   0  0  0  0  0  0  0  0  0  0  0  0
    2.3870   -0.1157   -0.9080 C   0  0  0  0  0  0  0  0  0  0  0  0
    3.6222    0.2903   -0.2320 C   0  0  0  0  0  0  0  0  0  0  0  0
    4.1700    1.5381   -0.3909 C   0  0  0  0  0  0  0  0  0  0  0  0
    5.3467    1.9021    0.2628 C   0  0  0  0  0  0  0  0  0  0  0  0
    5.9515    1.0053    1.0638 N   0  0  0  0  0  0  0  0  0  0  0  0
    5.4468   -0.2250    1.2452 C   0  0  0  0  0  0  0  0  0  0  0  0
    4.2646   -0.6017    0.5933 C   0  0  0  0  0  0  0  0  0  0  0  0
    1.3764   -0.7435   -0.2325 C   0  0  0  0  0  0  0  0  0  0  0  0
   -2.9071   -0.3444    0.1672 C   0  0  0  0  0  0  0  0  0  0  0  0
   -3.3110   -0.7004   -1.0976 C   0  0  0  0  0  0  0  0  0  0  0  0
   -4.4560   -0.1359   -1.6057 C   0  0  0  0  0  0  0  0  0  0  0  0
   -5.1849    0.7673   -0.8630 C   0  0  0  0  0  0  0  0  0  0  0  0
   -4.7840    1.1251    0.4064 C   0  0  0  0  0  0  0  0  0  0  0  0
   -3.6390    0.5611    0.9177 C   0  0  0  0  0  0  0  0  0  0  0  0
   -1.8431    0.6019    3.7013 H   0  0  0  0  0  0  0  0  0  0  0  0
   -1.4220   -2.6046   -0.5842 H   0  0  0  0  0  0  0  0  0  0  0  0
   -0.3272   -2.4057    0.7739 H   0  0  0  0  0  0  0  0  0  0  0  0
   -0.7988   -1.1482   -2.7213 H   0  0  0  0  0  0  0  0  0  0  0  0
    0.9256   -0.0481   -3.9466 H   0  0  0  0  0  0  0  0  0  0  0  0
    3.7164    2.2811   -1.0242 H   0  0  0  0  0  0  0  0  0  0  0  0
    5.8032    2.8706    0.1601 H   0  0  0  0  0  0  0  0  0  0  0  0
    5.9791   -0.8955    1.9007 H   0  0  0  0  0  0  0  0  0  0  0  0
    3.8769   -1.5968    0.7510 H   0  0  0  0  0  0  0  0  0  0  0  0
    1.4877   -0.9495    0.8226 H   0  0  0  0  0  0  0  0  0  0  0  0
   -2.7639   -1.4062   -1.6563 H   0  0  0  0  0  0  0  0  0  0  0  0
   -4.8441   -0.3614   -2.5951 H   0  0  0  0  0  0  0  0  0  0  0  0
   -6.0871    1.2158   -1.2554 H   0  0  0  0  0  0  0  0  0  0  0  0
   -5.3209    1.8251    1.0275 H   0  0  0  0  0  0  0  0  0  0  0  0
  1  2  2  0
  2  3  1  0
  3  4  1  0
  4  5  2  0
  5  6  1  0
  6  7  1  0
  7  8  2  0
  8  9  1  0
  9 10  2  0
 10 11  1  0
 10 12  1  0
 12 13  1  0
 13 14  2  0
 14 15  1  0
 15 16  2  0
 16 17  1  0
 17 18  2  0
 12 19  2  0
  5 20  1  0
 20 21  2  0
 21 22  1  0
 22 23  2  0
 23 24  1  0
 24 25  2  0
 25  2  1  0
 19  7  1  0
 25 20  1  0
 18 13  1  0
  3 26  1  0
  6 27  1  0
  6 28  1  0
  8 29  1  0
  9 30  1  0
 14 31  1  0
 15 32  1  0
 17 33  1  0
 18 34  1  0
 19 35  1  0
 21 36  1  0
 22 37  1  0
 23 38  1  0
 24 39  1  0
M  END
$$$$
