
     RDKit          3D

 29 31  0  0  0  0  0  0  0  0999 V2000
    3.7077   -2.6026   -0.7943 N   0  0  0  0  0  0  0  0  0  0  0  0
    3.2206   -1.3818   -0.2819 C   0  0  0  0  0  0  0  0  0  0  0  0
    1.8816   -1.0605   -0.2195 C   0  0  0  0  0  0  0  0  0  0  0  0
    1.4044    0.1213    0.2762 C   0  0  0  0  0  0  0  0  0  0  0  0
    0.0478    0.4433    0.3378 O   0  0  0  0  0  0  0  0  0  0  0  0
   -0.8822   -0.5107   -0.1412 C   0  0  0  0  0  0  0  0  0  0  0  0
   -2.2559   -0.0095   -0.0012 C   0  0  0  0  0  0  0  0  0  0  0  0
   -2.5529    1.2296    0.5310 C   0  0  0  0  0  0  0  0  0  0  0  0
   -3.8704    1.6582    0.6422 C   0  0  0  0  0  0  0  0  0  0  0  0
   -4.9228    0.8690    0.2288 C   0  0  0  0  0  0  0  0  0  0  0  0
   -4.6275   -0.3762   -0.3061 C   0  0  0  0  0  0  0  0  0  0  0  0
   -5.9635   -1.3748   -0.8294 Cl  0  0  0  0  0  0  0  0  0  0  0  0
   -3.3117   -0.7968   -0.4139 C   0  0  0  0  0  0  0  0  0  0  0  0
    2.3397    1.0351    0.7377 C   0  0  0  0  0  0  0  0  0  0  0  0
    2.2350    2.2735    1.2809 N   0  0  0  0  0  0  0  0  0  0  0  0
    3.4504    2.7007    1.5433 N   0  0  0  0  0  0  0  0  0  0  0  0
    4.3399    1.7926    1.1937 N   0  0  0  0  0  0  0  0  0  0  0  0
    3.6824    0.7281    0.6820 C   0  0  0  0  0  0  0  0  0  0  0  0
    4.0975   -0.4552    0.1818 N   0  0  0  0  0  0  0  0  0  0  0  0
    3.6323   -3.4613   -0.2295 H   0  0  0  0  0  0  0  0  0  0  0  0
    4.1382   -2.6393   -1.7301 H   0  0  0  0  0  0  0  0  0  0  0  0
    1.1717   -1.7884   -0.5850 H   0  0  0  0  0  0  0  0  0  0  0  0
   -0.7245   -1.4906    0.3591 H   0  0  0  0  0  0  0  0  0  0  0  0
   -0.6824   -0.6556   -1.2187 H   0  0  0  0  0  0  0  0  0  0  0  0
   -1.7487    1.8608    0.8593 H   0  0  0  0  0  0  0  0  0  0  0  0
   -4.1234    2.6352    1.0606 H   0  0  0  0  0  0  0  0  0  0  0  0
   -5.9539    1.2180    0.3218 H   0  0  0  0  0  0  0  0  0  0  0  0
   -3.1274   -1.7924   -0.8447 H   0  0  0  0  0  0  0  0  0  0  0  0
    5.3979    1.8305    1.2739 H   0  0  0  0  0  0  0  0  0  0  0  0
  1  2  1  0
  2  3  2  0
  3  4  1  0
  4  5  1  0
  5  6  1  0
  6  7  1  0
  7  8  2  0
  8  9  1  0
  9 10  2  0
 10 11  1  0
 11 12  1  0
 11 13  2  0
  4 14  2  0
 14 15  1  0
 15 16  2  0
 16 17  1  0
 17 18  1  0
 18 19  2  0
 19  2  1  0
 13  7  1  0
 18 14  1  0
  1 20  1  0
  1 21  1  0
  3 22  1  0
  6 23  1  0
  6 24  1  0
  8 25  1  0
  9 26  1  0
 10 27  1  0
 13 28  1  0
 17 29  1  0
M  END
$$$$
