
     RDKit          3D

 45 47  0  0  0  0  0  0  0  0999 V2000
    4.7066    0.5605   -1.5885 O   0  0  0  0  0  0  0  0  0  0  0  0
    4.8279    0.5461   -0.3175 C   0  0  0  0  0  0  0  0  0  0  0  0
    3.6328    0.3937    0.4180 N   0  0  0  0  0  0  0  0  0  0  0  0
    2.3472    0.2618   -0.1006 N   0  0  0  0  0  0  0  0  0  0  0  0
    1.5174   -0.8451    0.0212 C   0  0  0  0  0  0  0  0  0  0  0  0
    1.9498   -1.8651    0.6627 O   0  0  0  0  0  0  0  0  0  0  0  0
    0.1718   -0.9691   -0.5154 C   0  0  0  0  0  0  0  0  0  0  0  0
   -0.2116   -2.0205   -1.3236 C   0  0  0  0  0  0  0  0  0  0  0  0
   -1.5022   -2.1668   -1.8220 C   0  0  0  0  0  0  0  0  0  0  0  0
   -2.4445   -1.1910   -1.4768 C   0  0  0  0  0  0  0  0  0  0  0  0
   -2.0899   -0.1310   -0.6719 C   0  0  0  0  0  0  0  0  0  0  0  0
   -3.3361    1.0275   -0.2783 S   0  0  0  0  0  6  0  0  0  0  0  0
   -4.3168    1.1069   -1.4152 O   0  0  0  0  0  0  0  0  0  0  0  0
   -2.6585    2.3703   -0.0631 O   0  0  0  0  0  0  0  0  0  0  0  0
   -4.1724    0.6235    1.1491 N   0  0  0  0  0  0  0  0  0  0  0  0
   -5.5278    0.2225    1.0739 C   0  0  0  0  0  0  0  0  0  0  0  0
   -6.4763    0.9187    0.3535 C   0  0  0  0  0  0  0  0  0  0  0  0
   -7.7871    0.5851    0.2525 C   0  0  0  0  0  0  0  0  0  0  0  0
   -8.2391   -0.5383    0.9129 C   0  0  0  0  0  0  0  0  0  0  0  0
   -7.3324   -1.2717    1.6486 C   0  0  0  0  0  0  0  0  0  0  0  0
   -6.0077   -0.9092    1.7336 C   0  0  0  0  0  0  0  0  0  0  0  0
   -0.8058   -0.0345   -0.2084 C   0  0  0  0  0  0  0  0  0  0  0  0
    6.1306    0.6783    0.2900 C   0  0  0  0  0  0  0  0  0  0  0  0
    6.3306    1.0743    1.6076 C   0  0  0  0  0  0  0  0  0  0  0  0
    7.5941    1.1865    2.1724 C   0  0  0  0  0  0  0  0  0  0  0  0
    8.7001    0.8992    1.4154 C   0  0  0  0  0  0  0  0  0  0  0  0
    8.5407    0.5029    0.1020 C   0  0  0  0  0  0  0  0  0  0  0  0
    7.2747    0.4005   -0.4309 C   0  0  0  0  0  0  0  0  0  0  0  0
    3.7553    0.3770    1.4784 H   0  0  0  0  0  0  0  0  0  0  0  0
    1.9780    1.1048   -0.6453 H   0  0  0  0  0  0  0  0  0  0  0  0
    0.5020   -2.7675   -1.5967 H   0  0  0  0  0  0  0  0  0  0  0  0
   -1.8013   -2.9906   -2.4532 H   0  0  0  0  0  0  0  0  0  0  0  0
   -3.4434   -1.3122   -1.8661 H   0  0  0  0  0  0  0  0  0  0  0  0
   -3.7347    0.6552    2.1059 H   0  0  0  0  0  0  0  0  0  0  0  0
   -6.1436    1.8090   -0.1715 H   0  0  0  0  0  0  0  0  0  0  0  0
   -8.4789    1.1781   -0.3276 H   0  0  0  0  0  0  0  0  0  0  0  0
   -9.2861   -0.7692    0.8062 H   0  0  0  0  0  0  0  0  0  0  0  0
   -7.7169   -2.1455    2.1562 H   0  0  0  0  0  0  0  0  0  0  0  0
   -5.3325   -1.5040    2.3124 H   0  0  0  0  0  0  0  0  0  0  0  0
   -0.5499    0.7973    0.4099 H   0  0  0  0  0  0  0  0  0  0  0  0
    5.4448    1.2985    2.1939 H   0  0  0  0  0  0  0  0  0  0  0  0
    7.7272    1.4995    3.2126 H   0  0  0  0  0  0  0  0  0  0  0  0
    9.6864    0.9935    1.8854 H   0  0  0  0  0  0  0  0  0  0  0  0
    9.4197    0.2830   -0.4727 H   0  0  0  0  0  0  0  0  0  0  0  0
    7.1576    0.0772   -1.4764 H   0  0  0  0  0  0  0  0  0  0  0  0
  1  2  2  0
  2  3  1  0
  3  4  1  0
  4  5  1  0
  5  6  2  0
  5  7  1  0
  7  8  2  0
  8  9  1  0
  9 10  2  0
 10 11  1  0
 11 12  1  0
 12 13  2  0
 12 14  2  0
 12 15  1  0
 15 16  1  0
 16 17  2  0
 17 18  1  0
 18 19  2  0
 19 20  1  0
 20 21  2  0
 11 22  2  0
  2 23  1  0
 23 24  2  0
 24 25  1  0
 25 26  2  0
 26 27  1  0
 27 28  2  0
 22  7  1  0
 28 23  1  0
 21 16  1  0
  3 29  1  0
  4 30  1  0
  8 31  1  0
  9 32  1  0
 10 33  1  0
 15 34  1  0
 17 35  1  0
 18 36  1  0
 19 37  1  0
 20 38  1  0
 21 39  1  0
 22 40  1  0
 24 41  1  0
 25 42  1  0
 26 43  1  0
 27 44  1  0
 28 45  1  0
M  END
$$$$
