
     RDKit          3D

 46 49  0  0  0  0  0  0  0  0999 V2000
    6.9714    1.7782    0.9583 C   0  0  0  0  0  0  0  0  0  0  0  0
    6.7394    0.3548    0.6087 C   0  0  0  0  0  0  0  0  0  0  0  0
    7.6895   -0.6738    0.6118 C   0  0  0  0  0  0  0  0  0  0  0  0
    7.0416   -1.7454    0.2402 O   0  0  0  0  0  0  0  0  0  0  0  0
    5.7787   -1.4863    0.0053 N   0  0  0  0  0  0  0  0  0  0  0  0
    5.5357   -0.1831    0.2213 C   0  0  0  0  0  0  0  0  0  0  0  0
    4.2913    0.5758    0.0946 C   0  0  0  0  0  0  0  0  0  0  0  0
    3.1838   -0.3042   -0.3420 N   0  0  0  0  0  0  0  0  0  0  0  0
    1.8897    0.2012   -0.5336 C   0  0  0  0  0  0  0  0  0  0  0  0
    1.7453    1.4496   -0.3097 O   0  0  0  0  0  0  0  0  0  0  0  0
    0.7140   -0.5429   -0.9562 C   0  0  0  0  0  0  0  0  0  0  0  0
   -0.4722    0.1628   -1.2116 C   0  0  0  0  0  0  0  0  0  0  0  0
   -1.6448   -0.4233   -1.6247 C   0  0  0  0  0  0  0  0  0  0  0  0
   -2.8626    0.3959   -1.9028 C   0  0  0  0  0  0  0  0  0  0  0  0
   -3.5207    0.9244   -0.7080 C   0  0  0  0  0  0  0  0  0  0  0  0
   -3.2550    2.2079   -0.2978 N   0  0  0  0  0  0  0  0  0  0  0  0
   -3.7836    2.7338    0.7890 N   0  0  0  0  0  0  0  0  0  0  0  0
   -4.6261    2.0963    1.6089 C   0  0  0  0  0  0  0  0  0  0  0  0
   -5.1267    2.5978    2.6418 O   0  0  0  0  0  0  0  0  0  0  0  0
   -4.9460    0.7982    1.2659 C   0  0  0  0  0  0  0  0  0  0  0  0
   -5.8187    0.0892    2.0636 C   0  0  0  0  0  0  0  0  0  0  0  0
   -6.1681   -1.2075    1.7398 C   0  0  0  0  0  0  0  0  0  0  0  0
   -5.6129   -1.7514    0.5999 C   0  0  0  0  0  0  0  0  0  0  0  0
   -4.7431   -1.0284   -0.1841 C   0  0  0  0  0  0  0  0  0  0  0  0
   -4.3874    0.2537    0.1238 C   0  0  0  0  0  0  0  0  0  0  0  0
   -1.6257   -1.7861   -1.7900 C   0  0  0  0  0  0  0  0  0  0  0  0
   -0.4716   -2.5282   -1.5481 C   0  0  0  0  0  0  0  0  0  0  0  0
    0.6558   -1.8990   -1.1424 C   0  0  0  0  0  0  0  0  0  0  0  0
    1.7489   -2.6478   -0.9130 F   0  0  0  0  0  0  0  0  0  0  0  0
    6.8468    1.8406    2.0774 H   0  0  0  0  0  0  0  0  0  0  0  0
    7.9782    2.0894    0.6728 H   0  0  0  0  0  0  0  0  0  0  0  0
    6.2211    2.4261    0.4484 H   0  0  0  0  0  0  0  0  0  0  0  0
    8.7324   -0.5616    0.8738 H   0  0  0  0  0  0  0  0  0  0  0  0
    3.9360    0.9852    1.0760 H   0  0  0  0  0  0  0  0  0  0  0  0
    4.3341    1.4061   -0.6213 H   0  0  0  0  0  0  0  0  0  0  0  0
    3.3625   -1.3064   -0.5130 H   0  0  0  0  0  0  0  0  0  0  0  0
   -0.4603    1.2512   -1.0723 H   0  0  0  0  0  0  0  0  0  0  0  0
   -3.5501   -0.1239   -2.6015 H   0  0  0  0  0  0  0  0  0  0  0  0
   -2.4891    1.2732   -2.4947 H   0  0  0  0  0  0  0  0  0  0  0  0
   -3.5453    3.7296    1.0611 H   0  0  0  0  0  0  0  0  0  0  0  0
   -6.2380    0.5452    2.9531 H   0  0  0  0  0  0  0  0  0  0  0  0
   -6.8569   -1.7416    2.3861 H   0  0  0  0  0  0  0  0  0  0  0  0
   -5.8661   -2.7633    0.3188 H   0  0  0  0  0  0  0  0  0  0  0  0
   -4.3544   -1.4812   -1.0558 H   0  0  0  0  0  0  0  0  0  0  0  0
   -2.4788   -2.3593   -2.1189 H   0  0  0  0  0  0  0  0  0  0  0  0
   -0.4919   -3.6215   -1.6903 H   0  0  0  0  0  0  0  0  0  0  0  0
  1  2  1  0
  2  3  2  0
  3  4  1  0
  4  5  1  0
  5  6  2  0
  6  7  1  0
  7  8  1  0
  8  9  1  0
  9 10  2  0
  9 11  1  0
 11 12  2  0
 12 13  1  0
 13 14  1  0
 14 15  1  0
 15 16  2  0
 16 17  1  0
 17 18  1  0
 18 19  2  0
 18 20  1  0
 20 21  2  0
 21 22  1  0
 22 23  2  0
 23 24  1  0
 24 25  2  0
 13 26  2  0
 26 27  1  0
 27 28  2  0
 28 29  1  0
  6  2  1  0
 28 11  1  0
 25 15  1  0
 25 20  1  0
  1 30  1  0
  1 31  1  0
  1 32  1  0
  3 33  1  0
  7 34  1  0
  7 35  1  0
  8 36  1  0
 12 37  1  0
 14 38  1  0
 14 39  1  0
 17 40  1  0
 21 41  1  0
 22 42  1  0
 23 43  1  0
 24 44  1  0
 26 45  1  0
 27 46  1  0
M  END
$$$$
