
     RDKit          3D

 34 36  0  0  0  0  0  0  0  0999 V2000
   -6.8303    1.6957   -0.0139 O   0  0  0  0  0  0  0  0  0  0  0  0
   -5.6019    1.9390    0.0460 C   0  0  0  0  0  0  0  0  0  0  0  0
   -5.2109    3.2547    0.2135 O   0  0  0  0  0  0  0  0  0  0  0  0
   -4.6740    0.8351   -0.0631 C   0  0  0  0  0  0  0  0  0  0  0  0
   -5.0873   -0.4591   -0.2286 C   0  0  0  0  0  0  0  0  0  0  0  0
   -4.1988   -1.4925   -0.3302 C   0  0  0  0  0  0  0  0  0  0  0  0
   -2.8297   -1.1774   -0.2582 C   0  0  0  0  0  0  0  0  0  0  0  0
   -2.3651    0.0777   -0.0961 C   0  0  0  0  0  0  0  0  0  0  0  0
   -1.0138    0.3867   -0.0252 N   0  0  0  0  0  0  0  0  0  0  0  0
    0.0950   -0.4922   -0.1028 C   0  0  0  0  0  0  0  0  0  0  0  0
    0.0032   -1.7962   -0.2614 N   0  0  0  0  0  0  0  0  0  0  0  0
    1.0891   -2.5761   -0.3277 C   0  0  0  0  0  0  0  0  0  0  0  0
    2.3749   -2.0352   -0.2306 C   0  0  0  0  0  0  0  0  0  0  0  0
    2.4704   -0.6752   -0.0653 C   0  0  0  0  0  0  0  0  0  0  0  0
    3.7648   -0.0244    0.0451 C   0  0  0  0  0  0  0  0  0  0  0  0
    4.9560   -0.7110   -0.0073 C   0  0  0  0  0  0  0  0  0  0  0  0
    6.1636   -0.0287    0.1047 C   0  0  0  0  0  0  0  0  0  0  0  0
    6.1639    1.3355    0.2682 C   0  0  0  0  0  0  0  0  0  0  0  0
    4.9924    1.9999    0.3185 N   0  0  0  0  0  0  0  0  0  0  0  0
    3.8329    1.3431    0.2107 C   0  0  0  0  0  0  0  0  0  0  0  0
    1.3400    0.0320   -0.0088 N   0  0  0  0  0  0  0  0  0  0  0  0
   -3.3225    1.0905    0.0014 C   0  0  0  0  0  0  0  0  0  0  0  0
   -5.6999    4.0074   -0.2915 H   0  0  0  0  0  0  0  0  0  0  0  0
   -6.1654   -0.6471   -0.2781 H   0  0  0  0  0  0  0  0  0  0  0  0
   -4.5374   -2.5161   -0.4614 H   0  0  0  0  0  0  0  0  0  0  0  0
   -2.2025   -2.0527   -0.3474 H   0  0  0  0  0  0  0  0  0  0  0  0
   -0.7772    1.4397    0.1069 H   0  0  0  0  0  0  0  0  0  0  0  0
    0.9417   -3.6535   -0.4605 H   0  0  0  0  0  0  0  0  0  0  0  0
    3.2198   -2.7032   -0.2896 H   0  0  0  0  0  0  0  0  0  0  0  0
    5.0002   -1.7810   -0.1344 H   0  0  0  0  0  0  0  0  0  0  0  0
    7.1137   -0.5470    0.0664 H   0  0  0  0  0  0  0  0  0  0  0  0
    7.0730    1.9134    0.3602 H   0  0  0  0  0  0  0  0  0  0  0  0
    2.9218    1.9191    0.2570 H   0  0  0  0  0  0  0  0  0  0  0  0
   -2.9997    2.0991    0.1303 H   0  0  0  0  0  0  0  0  0  0  0  0
  1  2  2  0
  2  3  1  0
  2  4  1  0
  4  5  2  0
  5  6  1  0
  6  7  2  0
  7  8  1  0
  8  9  1  0
  9 10  1  0
 10 11  2  0
 11 12  1  0
 12 13  2  0
 13 14  1  0
 14 15  1  0
 15 16  2  0
 16 17  1  0
 17 18  2  0
 18 19  1  0
 19 20  2  0
 14 21  2  0
  8 22  2  0
 22  4  1  0
 21 10  1  0
 20 15  1  0
  3 23  1  0
  5 24  1  0
  6 25  1  0
  7 26  1  0
  9 27  1  0
 12 28  1  0
 13 29  1  0
 16 30  1  0
 17 31  1  0
 18 32  1  0
 20 33  1  0
 22 34  1  0
M  END
$$$$
