
     RDKit          3D

 34 36  0  0  0  0  0  0  0  0999 V2000
   -2.2842   -2.0956    0.1743 C   0  0  0  0  0  0  0  0  0  0  0  0
   -2.3142   -0.6421    0.5000 C   0  0  0  0  0  0  0  0  0  0  0  0
   -3.1286   -0.2525    1.5428 C   0  0  0  0  0  0  0  0  0  0  0  0
   -3.1962    1.0736    1.8877 C   0  0  0  0  0  0  0  0  0  0  0  0
   -2.4485    1.9867    1.1841 C   0  0  0  0  0  0  0  0  0  0  0  0
   -1.6384    1.5787    0.1427 C   0  0  0  0  0  0  0  0  0  0  0  0
   -1.5468    0.2491   -0.2313 C   0  0  0  0  0  0  0  0  0  0  0  0
   -0.7431   -0.2097   -1.3251 N   0  0  0  0  0  0  0  0  0  0  0  0
    0.5712   -0.3687   -1.4582 C   0  0  0  0  0  0  0  0  0  0  0  0
    1.6071   -0.0954   -0.4615 C   0  0  0  0  0  0  0  0  0  0  0  0
    1.2882    0.0476    0.8532 C   0  0  0  0  0  0  0  0  0  0  0  0
    2.2718    0.3440    1.8199 C   0  0  0  0  0  0  0  0  0  0  0  0
    3.5897    0.4989    1.4719 C   0  0  0  0  0  0  0  0  0  0  0  0
    4.5732    0.7921    2.4186 O   0  0  0  0  0  0  0  0  0  0  0  0
    3.9036    0.3535    0.1514 C   0  0  0  0  0  0  0  0  0  0  0  0
    2.9298    0.0574   -0.8286 C   0  0  0  0  0  0  0  0  0  0  0  0
    3.4187   -0.0519   -2.1041 O   0  0  0  0  0  0  0  0  0  0  0  0
    0.8426   -0.8126   -2.7330 N   0  0  0  0  0  0  0  0  0  0  0  0
   -0.3070   -0.9121   -3.3373 N   0  0  0  0  0  0  0  0  0  0  0  0
   -1.3104   -0.5597   -2.5336 C   0  0  0  0  0  0  0  0  0  0  0  0
   -2.5503   -0.5250   -2.7539 O   0  0  0  0  0  0  0  0  0  0  0  0
   -1.3394   -2.3557   -0.3030 H   0  0  0  0  0  0  0  0  0  0  0  0
   -2.4138   -2.6850    1.1187 H   0  0  0  0  0  0  0  0  0  0  0  0
   -3.1504   -2.3449   -0.4956 H   0  0  0  0  0  0  0  0  0  0  0  0
   -3.7297   -0.9588    2.1141 H   0  0  0  0  0  0  0  0  0  0  0  0
   -3.8403    1.3945    2.7150 H   0  0  0  0  0  0  0  0  0  0  0  0
   -2.5209    3.0316    1.4785 H   0  0  0  0  0  0  0  0  0  0  0  0
   -1.0599    2.3028   -0.3982 H   0  0  0  0  0  0  0  0  0  0  0  0
    0.3019   -0.0673    1.2734 H   0  0  0  0  0  0  0  0  0  0  0  0
    2.0102    0.4565    2.8606 H   0  0  0  0  0  0  0  0  0  0  0  0
    4.8119    1.7554    2.6510 H   0  0  0  0  0  0  0  0  0  0  0  0
    4.9552    0.4767   -0.1262 H   0  0  0  0  0  0  0  0  0  0  0  0
    2.9542   -0.2381   -2.9327 H   0  0  0  0  0  0  0  0  0  0  0  0
   -0.5073   -1.2241   -4.3353 H   0  0  0  0  0  0  0  0  0  0  0  0
  1  2  1  0
  2  3  2  0
  3  4  1  0
  4  5  2  0
  5  6  1  0
  6  7  2  0
  7  8  1  0
  8  9  1  0
  9 10  1  0
 10 11  2  0
 11 12  1  0
 12 13  2  0
 13 14  1  0
 13 15  1  0
 15 16  2  0
 16 17  1  0
  9 18  2  0
 18 19  1  0
 19 20  1  0
 20 21  2  0
  7  2  1  0
 20  8  1  0
 16 10  1  0
  1 22  1  0
  1 23  1  0
  1 24  1  0
  3 25  1  0
  4 26  1  0
  5 27  1  0
  6 28  1  0
 11 29  1  0
 12 30  1  0
 14 31  1  0
 15 32  1  0
 17 33  1  0
 19 34  1  0
M  END
$$$$
