
     RDKit          3D

 33 34  0  0  0  0  0  0  0  0999 V2000
    3.6632    2.1353   -1.7385 O   0  0  0  0  0  0  0  0  0  0  0  0
    4.2530    1.3570   -0.9582 C   0  0  0  0  0  0  0  0  0  0  0  0
    5.6346    1.3905   -0.8962 O   0  0  0  0  0  0  0  0  0  0  0  0
    3.5502    0.4109   -0.1062 C   0  0  0  0  0  0  0  0  0  0  0  0
    4.2296   -0.4436    0.7526 C   0  0  0  0  0  0  0  0  0  0  0  0
    3.5616   -1.3361    1.5559 C   0  0  0  0  0  0  0  0  0  0  0  0
    4.2151   -2.1961    2.4183 O   0  0  0  0  0  0  0  0  0  0  0  0
    2.1860   -1.3851    1.5091 C   0  0  0  0  0  0  0  0  0  0  0  0
    1.5046   -0.5398    0.6588 C   0  0  0  0  0  0  0  0  0  0  0  0
    0.0849   -0.5885    0.6086 N   0  0  0  0  0  0  0  0  0  0  0  0
   -0.6542    0.2715   -0.2592 C   0  0  0  0  0  0  0  0  0  0  0  0
   -2.1238    0.1186   -0.1864 C   0  0  0  0  0  0  0  0  0  0  0  0
   -2.7700   -0.3885    0.9150 C   0  0  0  0  0  0  0  0  0  0  0  0
   -4.1560   -0.5282    0.9565 C   0  0  0  0  0  0  0  0  0  0  0  0
   -4.8997   -0.1558   -0.1157 C   0  0  0  0  0  0  0  0  0  0  0  0
   -4.3094    0.3592   -1.2478 C   0  0  0  0  0  0  0  0  0  0  0  0
   -5.1164    0.7432   -2.3617 N   0  0  0  0  0  4  0  0  0  0  0  0
   -6.3363    0.6466   -2.3894 O   0  0  0  0  0  0  0  0  0  0  0  0
   -4.4711    1.2499   -3.4617 O   0  0  0  0  0  1  0  0  0  0  0  0
   -2.9403    0.4864   -1.2627 C   0  0  0  0  0  0  0  0  0  0  0  0
    2.1772    0.3640   -0.1550 C   0  0  0  0  0  0  0  0  0  0  0  0
    6.1658    2.2446   -1.0747 H   0  0  0  0  0  0  0  0  0  0  0  0
    5.3066   -0.3891    0.7740 H   0  0  0  0  0  0  0  0  0  0  0  0
    4.3964   -1.8733    3.3676 H   0  0  0  0  0  0  0  0  0  0  0  0
    1.6630   -2.1008    2.1542 H   0  0  0  0  0  0  0  0  0  0  0  0
   -0.3937   -1.2749    1.2246 H   0  0  0  0  0  0  0  0  0  0  0  0
   -0.3933    1.3324   -0.0738 H   0  0  0  0  0  0  0  0  0  0  0  0
   -0.3390    0.0750   -1.3258 H   0  0  0  0  0  0  0  0  0  0  0  0
   -2.2288   -0.6891    1.7761 H   0  0  0  0  0  0  0  0  0  0  0  0
   -4.6156   -0.9346    1.8514 H   0  0  0  0  0  0  0  0  0  0  0  0
   -5.9905   -0.2615   -0.0931 H   0  0  0  0  0  0  0  0  0  0  0  0
   -2.4894    0.8922   -2.1578 H   0  0  0  0  0  0  0  0  0  0  0  0
    1.6358    1.0075   -0.8037 H   0  0  0  0  0  0  0  0  0  0  0  0
  1  2  2  0
  2  3  1  0
  2  4  1  0
  4  5  2  0
  5  6  1  0
  6  7  1  0
  6  8  2  0
  8  9  1  0
  9 10  1  0
 10 11  1  0
 11 12  1  0
 12 13  2  0
 13 14  1  0
 14 15  2  0
 15 16  1  0
 16 17  1  0
 17 18  2  0
 17 19  1  0
 16 20  2  0
  9 21  2  0
 21  4  1  0
 20 12  1  0
  3 22  1  0
  5 23  1  0
  7 24  1  0
  8 25  1  0
 10 26  1  0
 11 27  1  0
 11 28  1  0
 13 29  1  0
 14 30  1  0
 15 31  1  0
 20 32  1  0
 21 33  1  0
M  CHG  2  17   1  19  -1
M  END
$$$$
