
     RDKit          3D

 32 33  0  0  0  0  0  0  0  0999 V2000
   -5.1676   -1.6930   -0.8569 O   0  0  0  0  0  0  0  0  0  0  0  0
   -3.9490   -1.9315   -0.7578 C   0  0  0  0  0  0  0  0  0  0  0  0
   -3.5962   -3.2734   -1.1100 O   0  0  0  0  0  0  0  0  0  0  0  0
   -3.0024   -0.9454   -0.3261 C   0  0  0  0  0  0  0  0  0  0  0  0
   -1.6476   -1.1158   -0.3102 C   0  0  0  0  0  0  0  0  0  0  0  0
   -0.7808   -0.0772    0.0416 C   0  0  0  0  0  0  0  0  0  0  0  0
    0.5675   -0.3167    0.0024 O   0  0  0  0  0  0  0  0  0  0  0  0
    1.4760    0.6898    0.4947 C   0  0  0  0  0  0  0  0  0  0  0  0
    2.8438    0.1633    0.1918 C   0  0  0  0  0  0  0  0  0  0  0  0
    3.1203   -0.2469   -1.0986 C   0  0  0  0  0  0  0  0  0  0  0  0
    4.3909   -0.6833   -1.3839 C   0  0  0  0  0  0  0  0  0  0  0  0
    5.3358   -0.7001   -0.4070 C   0  0  0  0  0  0  0  0  0  0  0  0
    5.0395   -0.2747    0.8605 C   0  0  0  0  0  0  0  0  0  0  0  0
    3.7769    0.1728    1.1952 C   0  0  0  0  0  0  0  0  0  0  0  0
    3.4720    0.5955    2.4424 F   0  0  0  0  0  0  0  0  0  0  0  0
   -1.3112    1.1362    0.3846 C   0  0  0  0  0  0  0  0  0  0  0  0
   -2.6520    1.3669    0.3835 C   0  0  0  0  0  0  0  0  0  0  0  0
   -3.1353    2.6437    0.7646 N   0  0  0  0  0  4  0  0  0  0  0  0
   -2.4822    3.6769    0.4876 O   0  0  0  0  0  0  0  0  0  0  0  0
   -4.3218    2.8585    1.4219 O   0  0  0  0  0  1  0  0  0  0  0  0
   -3.4750    0.3287    0.0240 C   0  0  0  0  0  0  0  0  0  0  0  0
   -4.8755    0.4871   -0.0328 O   0  0  0  0  0  0  0  0  0  0  0  0
   -4.2600   -3.9884   -0.6516 H   0  0  0  0  0  0  0  0  0  0  0  0
   -1.2642   -2.1002   -0.5393 H   0  0  0  0  0  0  0  0  0  0  0  0
    1.3383    0.9632    1.4814 H   0  0  0  0  0  0  0  0  0  0  0  0
    1.3079    1.5614   -0.2358 H   0  0  0  0  0  0  0  0  0  0  0  0
    2.3651   -0.1691   -1.8799 H   0  0  0  0  0  0  0  0  0  0  0  0
    4.6349   -0.9894   -2.4184 H   0  0  0  0  0  0  0  0  0  0  0  0
    6.3506   -1.0993   -0.6300 H   0  0  0  0  0  0  0  0  0  0  0  0
    5.7779   -0.3264    1.6376 H   0  0  0  0  0  0  0  0  0  0  0  0
   -0.5878    1.9156    0.7043 H   0  0  0  0  0  0  0  0  0  0  0  0
   -5.2887    1.3715    0.1204 H   0  0  0  0  0  0  0  0  0  0  0  0
  1  2  2  0
  2  3  1  0
  2  4  1  0
  4  5  2  0
  5  6  1  0
  6  7  1  0
  7  8  1  0
  8  9  1  0
  9 10  2  0
 10 11  1  0
 11 12  2  0
 12 13  1  0
 13 14  2  0
 14 15  1  0
  6 16  2  0
 16 17  1  0
 17 18  1  0
 18 19  2  0
 18 20  1  0
 17 21  2  0
 21 22  1  0
 21  4  1  0
 14  9  1  0
  3 23  1  0
  5 24  1  0
  8 25  1  0
  8 26  1  0
 10 27  1  0
 11 28  1  0
 12 29  1  0
 13 30  1  0
 16 31  1  0
 22 32  1  0
M  CHG  2  18   1  20  -1
M  END
$$$$
