
     RDKit          3D

 30 32  0  0  0  0  0  0  0  0999 V2000
    3.8608    2.0619    1.1757 O   0  0  0  0  0  0  0  0  0  0  0  0
    2.8137    1.6977    0.5590 C   0  0  0  0  0  0  0  0  0  0  0  0
    1.9239    2.5840    0.1003 N   0  0  0  0  0  0  0  0  0  0  0  0
    0.8414    2.2029   -0.5365 N   0  0  0  0  0  0  0  0  0  0  0  0
    0.5420    0.9133   -0.7764 C   0  0  0  0  0  0  0  0  0  0  0  0
   -0.7064    0.5895   -1.4427 C   0  0  0  0  0  0  0  0  0  0  0  0
   -1.8568    0.2421   -0.6215 C   0  0  0  0  0  0  0  0  0  0  0  0
   -2.3495   -1.0306   -0.5919 C   0  0  0  0  0  0  0  0  0  0  0  0
   -3.4797   -1.3428    0.1811 C   0  0  0  0  0  0  0  0  0  0  0  0
   -4.1366   -0.3962    0.9348 C   0  0  0  0  0  0  0  0  0  0  0  0
   -3.6422    0.9006    0.9100 C   0  0  0  0  0  0  0  0  0  0  0  0
   -2.5344    1.1887    0.1477 C   0  0  0  0  0  0  0  0  0  0  0  0
   -1.8917    2.8140    0.0921 Cl  0  0  0  0  0  0  0  0  0  0  0  0
    1.4309   -0.0160   -0.3225 C   0  0  0  0  0  0  0  0  0  0  0  0
    1.2432   -1.3647   -0.5245 C   0  0  0  0  0  0  0  0  0  0  0  0
    2.1654   -2.2753   -0.0654 C   0  0  0  0  0  0  0  0  0  0  0  0
    3.3076   -1.9137    0.6074 C   0  0  0  0  0  0  0  0  0  0  0  0
    3.5167   -0.5751    0.8187 C   0  0  0  0  0  0  0  0  0  0  0  0
    2.6012    0.3520    0.3642 C   0  0  0  0  0  0  0  0  0  0  0  0
    2.1191    3.6228    0.2679 H   0  0  0  0  0  0  0  0  0  0  0  0
   -1.0299    1.4829   -2.0629 H   0  0  0  0  0  0  0  0  0  0  0  0
   -0.5854   -0.2075   -2.2398 H   0  0  0  0  0  0  0  0  0  0  0  0
   -1.9214   -1.8704   -1.1607 H   0  0  0  0  0  0  0  0  0  0  0  0
   -3.8336   -2.3696    0.1731 H   0  0  0  0  0  0  0  0  0  0  0  0
   -5.0125   -0.6590    1.5278 H   0  0  0  0  0  0  0  0  0  0  0  0
   -4.1394    1.6645    1.4924 H   0  0  0  0  0  0  0  0  0  0  0  0
    0.3599   -1.6505   -1.0684 H   0  0  0  0  0  0  0  0  0  0  0  0
    1.9766   -3.3323   -0.2465 H   0  0  0  0  0  0  0  0  0  0  0  0
    4.0312   -2.6267    0.9688 H   0  0  0  0  0  0  0  0  0  0  0  0
    4.3859   -0.1830    1.3385 H   0  0  0  0  0  0  0  0  0  0  0  0
  1  2  2  0
  2  3  1  0
  3  4  1  0
  4  5  2  0
  5  6  1  0
  6  7  1  0
  7  8  2  0
  8  9  1  0
  9 10  2  0
 10 11  1  0
 11 12  2  0
 12 13  1  0
  5 14  1  0
 14 15  2  0
 15 16  1  0
 16 17  2  0
 17 18  1  0
 18 19  2  0
 19  2  1  0
 12  7  1  0
 19 14  1  0
  3 20  1  0
  6 21  1  0
  6 22  1  0
  8 23  1  0
  9 24  1  0
 10 25  1  0
 11 26  1  0
 15 27  1  0
 16 28  1  0
 17 29  1  0
 18 30  1  0
M  END
$$$$
