
     RDKit          3D

 31 33  0  0  0  0  0  0  0  0999 V2000
   -5.1423    0.6760   -0.6970 C   0  0  0  0  0  0  0  0  0  0  0  0
   -3.7006    0.2738   -0.8062 C   0  0  0  0  0  0  0  0  0  0  0  0
   -3.3428   -0.7027   -1.7160 C   0  0  0  0  0  0  0  0  0  0  0  0
   -2.0181   -1.0328   -1.7759 C   0  0  0  0  0  0  0  0  0  0  0  0
   -1.0386   -0.4456   -0.9830 C   0  0  0  0  0  0  0  0  0  0  0  0
   -1.3910    0.5130   -0.0916 C   0  0  0  0  0  0  0  0  0  0  0  0
   -0.5116    1.1749    0.8069 N   0  0  0  0  0  0  0  0  0  0  0  0
    0.8474    0.5651    1.5571 S   0  0  0  0  0  6  0  0  0  0  0  0
    0.4892   -0.6212    2.4434 O   0  0  0  0  0  0  0  0  0  0  0  0
    1.3983    1.5882    2.5478 O   0  0  0  0  0  0  0  0  0  0  0  0
    2.1863    0.1000    0.5658 C   0  0  0  0  0  0  0  0  0  0  0  0
    2.2553    0.4928   -0.7727 C   0  0  0  0  0  0  0  0  0  0  0  0
    3.3858    0.1484   -1.4748 C   0  0  0  0  0  0  0  0  0  0  0  0
    4.4153   -0.5470   -0.9185 C   0  0  0  0  0  0  0  0  0  0  0  0
    4.2840   -0.9194    0.4550 C   0  0  0  0  0  0  0  0  0  0  0  0
    5.3269   -1.6455    1.0811 N   0  0  0  0  0  0  0  0  0  0  0  0
    4.6667   -1.8495    2.7542 S   0  0  0  0  0  0  0  0  0  0  0  0
    3.2234   -1.0359    2.4847 N   0  0  0  0  0  0  0  0  0  0  0  0
    3.2300   -0.6052    1.1310 C   0  0  0  0  0  0  0  0  0  0  0  0
   -2.7625    0.8660   -0.0175 C   0  0  0  0  0  0  0  0  0  0  0  0
   -5.6245    0.4508   -1.6739 H   0  0  0  0  0  0  0  0  0  0  0  0
   -5.6065    0.0542    0.0700 H   0  0  0  0  0  0  0  0  0  0  0  0
   -5.1877    1.7509   -0.4645 H   0  0  0  0  0  0  0  0  0  0  0  0
   -4.0564   -1.1897   -2.3534 H   0  0  0  0  0  0  0  0  0  0  0  0
   -1.7042   -1.7836   -2.4675 H   0  0  0  0  0  0  0  0  0  0  0  0
   -0.0278   -0.8045   -1.1044 H   0  0  0  0  0  0  0  0  0  0  0  0
   -0.7643    2.2050    1.0220 H   0  0  0  0  0  0  0  0  0  0  0  0
    1.4558    1.0516   -1.2511 H   0  0  0  0  0  0  0  0  0  0  0  0
    3.4760    0.4366   -2.5199 H   0  0  0  0  0  0  0  0  0  0  0  0
    5.2930   -0.8073   -1.4856 H   0  0  0  0  0  0  0  0  0  0  0  0
   -3.0547    1.6424    0.7043 H   0  0  0  0  0  0  0  0  0  0  0  0
  1  2  1  0
  2  3  2  0
  3  4  1  0
  4  5  2  0
  5  6  1  0
  6  7  1  0
  7  8  1  0
  8  9  2  0
  8 10  2  0
  8 11  1  0
 11 12  2  0
 12 13  1  0
 13 14  2  0
 14 15  1  0
 15 16  2  0
 16 17  1  0
 17 18  1  0
 18 19  2  0
  6 20  2  0
 20  2  1  0
 19 11  1  0
 19 15  1  0
  1 21  1  0
  1 22  1  0
  1 23  1  0
  3 24  1  0
  4 25  1  0
  5 26  1  0
  7 27  1  0
 12 28  1  0
 13 29  1  0
 14 30  1  0
 20 31  1  0
M  END
$$$$
