
     RDKit          3D

 46 49  0  0  0  0  0  0  0  0999 V2000
   -3.5403    1.0983    1.5768 O   0  0  0  0  0  0  0  0  0  0  0  0
   -3.9977    0.2981    0.6982 C   0  0  0  0  0  0  0  0  0  0  0  0
   -3.0897   -0.5228    0.0266 N   0  0  0  0  0  0  0  0  0  0  0  0
   -1.6720   -0.5643    0.2212 C   0  0  0  0  0  0  0  0  0  0  0  0
   -0.9982    0.1651    1.0653 C   0  0  0  0  0  0  0  0  0  0  0  0
    0.4367   -0.1846    0.9533 C   0  0  0  0  0  0  0  0  0  0  0  0
    0.4583   -1.2237   -0.0847 C   0  0  0  0  0  0  0  0  0  0  0  0
    1.6559   -1.9591   -0.6199 C   0  0  0  0  0  0  0  0  0  0  0  0
    2.5860   -0.9545   -1.2002 C   0  0  0  0  0  0  0  0  0  0  0  0
    2.5832   -0.7231   -2.5473 N   0  0  0  0  0  0  0  0  0  0  0  0
    3.3598    0.1583   -3.1374 N   0  0  0  0  0  0  0  0  0  0  0  0
    4.2104    0.8804   -2.3852 C   0  0  0  0  0  0  0  0  0  0  0  0
    4.9573    1.7243   -2.9276 O   0  0  0  0  0  0  0  0  0  0  0  0
    4.2663    0.6988   -1.0220 C   0  0  0  0  0  0  0  0  0  0  0  0
    3.4369   -0.2363   -0.4288 C   0  0  0  0  0  0  0  0  0  0  0  0
    3.5860   -0.3796    1.0324 C   0  0  0  0  0  0  0  0  0  0  0  0
    5.0547   -0.5034    1.4042 C   0  0  0  0  0  0  0  0  0  0  0  0
    5.8636    0.6559    0.8961 C   0  0  0  0  0  0  0  0  0  0  0  0
    5.1845    1.4649   -0.1789 C   0  0  0  0  0  0  0  0  0  0  0  0
   -0.7583   -1.4048   -0.4692 N   0  0  0  0  0  0  0  0  0  0  0  0
   -5.4439    0.2739    0.4325 C   0  0  0  0  0  0  0  0  0  0  0  0
   -6.2578    1.1385    1.1351 C   0  0  0  0  0  0  0  0  0  0  0  0
   -7.6227    1.1792    0.9458 C   0  0  0  0  0  0  0  0  0  0  0  0
   -8.1974    0.3316    0.0272 C   0  0  0  0  0  0  0  0  0  0  0  0
   -7.4132   -0.5552   -0.7019 C   0  0  0  0  0  0  0  0  0  0  0  0
   -6.0533   -0.5527   -0.4717 C   0  0  0  0  0  0  0  0  0  0  0  0
   -3.4870   -1.1872   -0.7061 H   0  0  0  0  0  0  0  0  0  0  0  0
   -1.3217    0.9255    1.7743 H   0  0  0  0  0  0  0  0  0  0  0  0
    0.9653    0.7548    0.6067 H   0  0  0  0  0  0  0  0  0  0  0  0
    0.8500   -0.5354    1.9262 H   0  0  0  0  0  0  0  0  0  0  0  0
    2.1059   -2.5810    0.1510 H   0  0  0  0  0  0  0  0  0  0  0  0
    1.3043   -2.6749   -1.4159 H   0  0  0  0  0  0  0  0  0  0  0  0
    3.3560    0.3326   -4.1606 H   0  0  0  0  0  0  0  0  0  0  0  0
    3.1502    0.5173    1.5352 H   0  0  0  0  0  0  0  0  0  0  0  0
    3.0744   -1.2881    1.3633 H   0  0  0  0  0  0  0  0  0  0  0  0
    5.1098   -0.4989    2.5122 H   0  0  0  0  0  0  0  0  0  0  0  0
    5.4159   -1.4850    1.0610 H   0  0  0  0  0  0  0  0  0  0  0  0
    6.1535    1.3426    1.7223 H   0  0  0  0  0  0  0  0  0  0  0  0
    6.8130    0.2697    0.4721 H   0  0  0  0  0  0  0  0  0  0  0  0
    5.9487    1.9408   -0.8537 H   0  0  0  0  0  0  0  0  0  0  0  0
    4.6472    2.3261    0.2950 H   0  0  0  0  0  0  0  0  0  0  0  0
   -5.8607    1.8412    1.8835 H   0  0  0  0  0  0  0  0  0  0  0  0
   -8.2642    1.8505    1.4897 H   0  0  0  0  0  0  0  0  0  0  0  0
   -9.2652    0.3281   -0.1552 H   0  0  0  0  0  0  0  0  0  0  0  0
   -7.8317   -1.2380   -1.4344 H   0  0  0  0  0  0  0  0  0  0  0  0
   -5.4589   -1.2439   -1.0424 H   0  0  0  0  0  0  0  0  0  0  0  0
  1  2  2  0
  2  3  1  0
  3  4  1  0
  4  5  2  0
  5  6  1  0
  6  7  1  0
  7  8  1  0
  8  9  1  0
  9 10  2  0
 10 11  1  0
 11 12  1  0
 12 13  2  0
 12 14  1  0
 14 15  2  0
 15 16  1  0
 16 17  1  0
 17 18  1  0
 18 19  1  0
  7 20  2  0
  2 21  1  0
 21 22  2  0
 22 23  1  0
 23 24  2  0
 24 25  1  0
 25 26  2  0
 20  4  1  0
 26 21  1  0
 15  9  1  0
 19 14  1  0
  3 27  1  0
  5 28  1  0
  6 29  1  0
  6 30  1  0
  8 31  1  0
  8 32  1  0
 11 33  1  0
 16 34  1  0
 16 35  1  0
 17 36  1  0
 17 37  1  0
 18 38  1  0
 18 39  1  0
 19 40  1  0
 19 41  1  0
 22 42  1  0
 23 43  1  0
 24 44  1  0
 25 45  1  0
 26 46  1  0
M  END
$$$$
