
     RDKit          3D

 51 54  0  0  0  0  0  0  0  0999 V2000
    5.8951   -2.1437    1.4530 C   0  0  0  0  0  0  0  0  0  0  0  0
    5.2683   -0.9807    1.0329 O   0  0  0  0  0  0  0  0  0  0  0  0
    4.0574   -1.2165    0.3898 C   0  0  0  0  0  0  0  0  0  0  0  0
    2.8897   -0.6456    1.1352 C   0  0  0  0  0  0  0  0  0  0  0  0
    1.8992   -0.0938    0.1353 C   0  0  0  0  0  0  0  0  0  0  0  0
    2.5413    0.9942   -0.5625 N   0  0  0  0  0  0  0  0  0  0  0  0
    1.8833    2.2338   -0.6823 C   0  0  0  0  0  0  0  0  0  0  0  0
    2.4055    3.2129   -1.2881 O   0  0  0  0  0  0  0  0  0  0  0  0
    0.5584    2.3809   -0.0848 C   0  0  0  0  0  0  0  0  0  0  0  0
   -0.5728    2.0657   -0.8006 C   0  0  0  0  0  0  0  0  0  0  0  0
   -1.8581    2.1756   -0.2878 C   0  0  0  0  0  0  0  0  0  0  0  0
   -3.0289    1.8279   -1.1297 C   0  0  0  0  0  0  0  0  0  0  0  0
   -3.2299    0.3863   -1.2922 C   0  0  0  0  0  0  0  0  0  0  0  0
   -2.6821   -0.1975   -2.3915 N   0  0  0  0  0  0  0  0  0  0  0  0
   -2.7199   -1.4730   -2.6582 N   0  0  0  0  0  0  0  0  0  0  0  0
   -3.3308   -2.3345   -1.8263 C   0  0  0  0  0  0  0  0  0  0  0  0
   -3.3986   -3.5611   -2.0262 O   0  0  0  0  0  0  0  0  0  0  0  0
   -3.9213   -1.8106   -0.6718 C   0  0  0  0  0  0  0  0  0  0  0  0
   -4.5769   -2.6258    0.2208 C   0  0  0  0  0  0  0  0  0  0  0  0
   -5.1582   -2.0859    1.3339 C   0  0  0  0  0  0  0  0  0  0  0  0
   -5.1122   -0.7331    1.6004 C   0  0  0  0  0  0  0  0  0  0  0  0
   -4.4540    0.0626    0.6995 C   0  0  0  0  0  0  0  0  0  0  0  0
   -3.8621   -0.4536   -0.4221 C   0  0  0  0  0  0  0  0  0  0  0  0
   -1.9821    2.6221    0.9949 C   0  0  0  0  0  0  0  0  0  0  0  0
   -0.8663    2.9605    1.7798 C   0  0  0  0  0  0  0  0  0  0  0  0
    0.3846    2.8232    1.1959 C   0  0  0  0  0  0  0  0  0  0  0  0
    1.4956    3.1339    1.9035 F   0  0  0  0  0  0  0  0  0  0  0  0
    3.8553    0.7295   -1.1076 C   0  0  0  0  0  0  0  0  0  0  0  0
    4.0567   -0.7853   -1.0355 C   0  0  0  0  0  0  0  0  0  0  0  0
    5.2755   -2.7368    2.1759 H   0  0  0  0  0  0  0  0  0  0  0  0
    6.7893   -1.8192    2.0435 H   0  0  0  0  0  0  0  0  0  0  0  0
    6.2546   -2.7708    0.6284 H   0  0  0  0  0  0  0  0  0  0  0  0
    3.9303   -2.3419    0.3984 H   0  0  0  0  0  0  0  0  0  0  0  0
    3.2273    0.2430    1.7445 H   0  0  0  0  0  0  0  0  0  0  0  0
    2.4183   -1.3961    1.8065 H   0  0  0  0  0  0  0  0  0  0  0  0
    1.5812   -0.8952   -0.5791 H   0  0  0  0  0  0  0  0  0  0  0  0
    0.9958    0.3035    0.6844 H   0  0  0  0  0  0  0  0  0  0  0  0
   -0.4568    1.7190   -1.8021 H   0  0  0  0  0  0  0  0  0  0  0  0
   -3.9474    2.3637   -0.8007 H   0  0  0  0  0  0  0  0  0  0  0  0
   -2.8202    2.2619   -2.1463 H   0  0  0  0  0  0  0  0  0  0  0  0
   -2.2734   -1.8770   -3.5353 H   0  0  0  0  0  0  0  0  0  0  0  0
   -4.6257   -3.7004    0.0299 H   0  0  0  0  0  0  0  0  0  0  0  0
   -5.6842   -2.7005    2.0621 H   0  0  0  0  0  0  0  0  0  0  0  0
   -5.5860   -0.3113    2.5017 H   0  0  0  0  0  0  0  0  0  0  0  0
   -4.4185    1.1350    0.8732 H   0  0  0  0  0  0  0  0  0  0  0  0
   -2.9332    2.7616    1.5023 H   0  0  0  0  0  0  0  0  0  0  0  0
   -0.9818    3.3112    2.7946 H   0  0  0  0  0  0  0  0  0  0  0  0
    3.8118    0.9695   -2.2040 H   0  0  0  0  0  0  0  0  0  0  0  0
    4.6660    1.2741   -0.6137 H   0  0  0  0  0  0  0  0  0  0  0  0
    3.2710   -1.2838   -1.6298 H   0  0  0  0  0  0  0  0  0  0  0  0
    5.0702   -0.9778   -1.4622 H   0  0  0  0  0  0  0  0  0  0  0  0
  1  2  1  0
  2  3  1  0
  3  4  1  0
  4  5  1  0
  5  6  1  0
  6  7  1  0
  7  8  2  0
  7  9  1  0
  9 10  2  0
 10 11  1  0
 11 12  1  0
 12 13  1  0
 13 14  2  0
 14 15  1  0
 15 16  1  0
 16 17  2  0
 16 18  1  0
 18 19  2  0
 19 20  1  0
 20 21  2  0
 21 22  1  0
 22 23  2  0
 11 24  2  0
 24 25  1  0
 25 26  2  0
 26 27  1  0
  6 28  1  0
 28 29  1  0
 29  3  1  0
 26  9  1  0
 23 13  1  0
 23 18  1  0
  1 30  1  0
  1 31  1  0
  1 32  1  0
  3 33  1  0
  4 34  1  0
  4 35  1  0
  5 36  1  0
  5 37  1  0
 10 38  1  0
 12 39  1  0
 12 40  1  0
 15 41  1  0
 19 42  1  0
 20 43  1  0
 21 44  1  0
 22 45  1  0
 24 46  1  0
 25 47  1  0
 28 48  1  0
 28 49  1  0
 29 50  1  0
 29 51  1  0
M  END
$$$$
