
     RDKit          3D

 55 59  0  0  0  0  0  0  0  0999 V2000
    1.4800   -3.1271   -1.9801 O   0  0  0  0  0  0  0  0  0  0  0  0
    1.0344   -2.2581   -1.1629 C   0  0  0  0  0  0  0  0  0  0  0  0
   -0.2898   -2.5068   -0.6383 C   0  0  0  0  0  0  0  0  0  0  0  0
   -1.4526   -2.0533   -1.2326 C   0  0  0  0  0  0  0  0  0  0  0  0
   -2.6998   -2.2999   -0.7200 C   0  0  0  0  0  0  0  0  0  0  0  0
   -3.9822   -1.8218   -1.3112 C   0  0  0  0  0  0  0  0  0  0  0  0
   -4.6304   -0.7510   -0.5102 C   0  0  0  0  0  0  0  0  0  0  0  0
   -5.6190   -1.1001    0.3803 N   0  0  0  0  0  0  0  0  0  0  0  0
   -6.2158   -0.2259    1.1556 N   0  0  0  0  0  0  0  0  0  0  0  0
   -5.9195    1.0824    1.1520 C   0  0  0  0  0  0  0  0  0  0  0  0
   -6.4818    1.9235    1.8874 O   0  0  0  0  0  0  0  0  0  0  0  0
   -4.9237    1.5185    0.2717 C   0  0  0  0  0  0  0  0  0  0  0  0
   -4.5810    2.8475    0.2106 C   0  0  0  0  0  0  0  0  0  0  0  0
   -3.6105    3.2802   -0.6636 C   0  0  0  0  0  0  0  0  0  0  0  0
   -3.0003    2.3420   -1.4683 C   0  0  0  0  0  0  0  0  0  0  0  0
   -3.3111    1.0036   -1.4406 C   0  0  0  0  0  0  0  0  0  0  0  0
   -4.2981    0.5864   -0.5448 C   0  0  0  0  0  0  0  0  0  0  0  0
   -2.8265   -3.0465    0.4628 C   0  0  0  0  0  0  0  0  0  0  0  0
   -1.6833   -3.5058    1.0677 C   0  0  0  0  0  0  0  0  0  0  0  0
   -0.4343   -3.2365    0.5202 C   0  0  0  0  0  0  0  0  0  0  0  0
    0.6403   -3.7151    1.1625 F   0  0  0  0  0  0  0  0  0  0  0  0
    1.8386   -1.1606   -0.8450 N   0  0  0  0  0  0  0  0  0  0  0  0
    1.3928   -0.1374    0.0755 C   0  0  0  0  0  0  0  0  0  0  0  0
    2.4156    0.2016    1.1366 C   0  0  0  0  0  0  0  0  0  0  0  0
    3.7284    0.2869    0.5174 N   0  0  0  0  0  0  0  0  0  0  0  0
    4.5023    1.4443    0.7239 C   0  0  0  0  0  0  0  0  0  0  0  0
    4.0460    2.3951    1.4489 O   0  0  0  0  0  0  0  0  0  0  0  0
    5.8357    1.6528    0.1538 C   0  0  0  0  0  0  0  0  0  0  0  0
    6.8387    2.4949    0.8725 C   0  0  0  0  0  0  0  0  0  0  0  0
    6.1230    3.0575   -0.2863 C   0  0  0  0  0  0  0  0  0  0  0  0
    4.1329   -0.8515   -0.2734 C   0  0  0  0  0  0  0  0  0  0  0  0
    3.1510   -1.0284   -1.4402 C   0  0  0  0  0  0  0  0  0  0  0  0
   -1.3583   -1.4859   -2.1545 H   0  0  0  0  0  0  0  0  0  0  0  0
   -3.8397   -1.4541   -2.3543 H   0  0  0  0  0  0  0  0  0  0  0  0
   -4.7290   -2.6715   -1.3525 H   0  0  0  0  0  0  0  0  0  0  0  0
   -6.9787   -0.5068    1.8401 H   0  0  0  0  0  0  0  0  0  0  0  0
   -5.1093    3.5400    0.8817 H   0  0  0  0  0  0  0  0  0  0  0  0
   -3.3636    4.3407   -0.6858 H   0  0  0  0  0  0  0  0  0  0  0  0
   -2.2419    2.6682   -2.1545 H   0  0  0  0  0  0  0  0  0  0  0  0
   -2.8490    0.2801   -2.0731 H   0  0  0  0  0  0  0  0  0  0  0  0
   -3.8121   -3.2518    0.8835 H   0  0  0  0  0  0  0  0  0  0  0  0
   -1.7461   -4.0885    1.9871 H   0  0  0  0  0  0  0  0  0  0  0  0
    0.4693   -0.4517    0.6249 H   0  0  0  0  0  0  0  0  0  0  0  0
    1.2097    0.8100   -0.5008 H   0  0  0  0  0  0  0  0  0  0  0  0
    2.1521    1.1832    1.5379 H   0  0  0  0  0  0  0  0  0  0  0  0
    2.3700   -0.5834    1.9151 H   0  0  0  0  0  0  0  0  0  0  0  0
    6.2479    0.8485   -0.4748 H   0  0  0  0  0  0  0  0  0  0  0  0
    6.6008    2.8762    1.8928 H   0  0  0  0  0  0  0  0  0  0  0  0
    7.9031    2.2315    0.7442 H   0  0  0  0  0  0  0  0  0  0  0  0
    6.5765    3.1720   -1.2840 H   0  0  0  0  0  0  0  0  0  0  0  0
    5.4033    3.8764   -0.0443 H   0  0  0  0  0  0  0  0  0  0  0  0
    5.1508   -0.7924   -0.6560 H   0  0  0  0  0  0  0  0  0  0  0  0
    4.0268   -1.7887    0.3471 H   0  0  0  0  0  0  0  0  0  0  0  0
    3.4696   -1.9221   -1.9937 H   0  0  0  0  0  0  0  0  0  0  0  0
    3.2480   -0.1215   -2.0524 H   0  0  0  0  0  0  0  0  0  0  0  0
  1  2  2  0
  2  3  1  0
  3  4  2  0
  4  5  1  0
  5  6  1  0
  6  7  1  0
  7  8  2  0
  8  9  1  0
  9 10  1  0
 10 11  2  0
 10 12  1  0
 12 13  2  0
 13 14  1  0
 14 15  2  0
 15 16  1  0
 16 17  2  0
  5 18  2  0
 18 19  1  0
 19 20  2  0
 20 21  1  0
  2 22  1  0
 22 23  1  0
 23 24  1  0
 24 25  1  0
 25 26  1  0
 26 27  2  0
 26 28  1  0
 28 29  1  0
 29 30  1  0
 25 31  1  0
 31 32  1  0
 20  3  1  0
 32 22  1  0
 17  7  1  0
 30 28  1  0
 17 12  1  0
  4 33  1  0
  6 34  1  0
  6 35  1  0
  9 36  1  0
 13 37  1  0
 14 38  1  0
 15 39  1  0
 16 40  1  0
 18 41  1  0
 19 42  1  0
 23 43  1  0
 23 44  1  0
 24 45  1  0
 24 46  1  0
 28 47  1  0
 29 48  1  0
 29 49  1  0
 30 50  1  0
 30 51  1  0
 31 52  1  0
 31 53  1  0
 32 54  1  0
 32 55  1  0
M  END
$$$$
