
     RDKit          3D

 44 47  0  0  0  0  0  0  0  0999 V2000
    1.0923   -1.3898    0.8875 O   0  0  0  0  0  0  0  0  0  0  0  0
    1.0810   -0.3322    0.2536 C   0  0  0  0  0  0  0  0  0  0  0  0
   -0.2519    0.1207   -0.1042 N   0  0  0  0  0  0  0  0  0  0  0  0
   -1.4410   -0.5803    0.2381 C   0  0  0  0  0  0  0  0  0  0  0  0
   -2.3062    0.2573    1.1086 C   0  0  0  0  0  0  0  0  0  0  0  0
   -2.4766    1.5781    0.7786 C   0  0  0  0  0  0  0  0  0  0  0  0
   -3.2832    2.3854    1.5752 C   0  0  0  0  0  0  0  0  0  0  0  0
   -3.8973    1.8584    2.6764 C   0  0  0  0  0  0  0  0  0  0  0  0
   -3.7009    0.5244    2.9753 C   0  0  0  0  0  0  0  0  0  0  0  0
   -2.9012   -0.3013    2.1965 C   0  0  0  0  0  0  0  0  0  0  0  0
   -2.2264   -1.0390   -0.9071 C   0  0  0  0  0  0  0  0  0  0  0  0
   -2.4604   -0.2465   -2.0042 C   0  0  0  0  0  0  0  0  0  0  0  0
   -3.2238   -0.7413   -3.0689 C   0  0  0  0  0  0  0  0  0  0  0  0
   -3.7335   -2.0221   -3.0041 C   0  0  0  0  0  0  0  0  0  0  0  0
   -3.5123   -2.8373   -1.9132 C   0  0  0  0  0  0  0  0  0  0  0  0
   -2.7546   -2.3053   -0.8898 C   0  0  0  0  0  0  0  0  0  0  0  0
    2.2262    0.4387   -0.1334 C   0  0  0  0  0  0  0  0  0  0  0  0
    2.0346    1.5972   -0.8408 N   0  0  0  0  0  0  0  0  0  0  0  0
    2.9943    2.3728   -1.2426 N   0  0  0  0  0  0  0  0  0  0  0  0
    4.2708    2.0779   -0.9817 C   0  0  0  0  0  0  0  0  0  0  0  0
    5.2249    2.7957   -1.3493 O   0  0  0  0  0  0  0  0  0  0  0  0
    4.5471    0.9312   -0.2758 C   0  0  0  0  0  0  0  0  0  0  0  0
    5.8287    0.5678    0.0267 C   0  0  0  0  0  0  0  0  0  0  0  0
    6.1380   -0.5744    0.7321 C   0  0  0  0  0  0  0  0  0  0  0  0
    5.1344   -1.4049    1.1640 C   0  0  0  0  0  0  0  0  0  0  0  0
    3.8144   -1.0372    0.8565 C   0  0  0  0  0  0  0  0  0  0  0  0
    3.5110    0.1028    0.1527 C   0  0  0  0  0  0  0  0  0  0  0  0
   -0.3032    1.0030   -0.6357 H   0  0  0  0  0  0  0  0  0  0  0  0
   -1.0950   -1.4997    0.8099 H   0  0  0  0  0  0  0  0  0  0  0  0
   -2.0134    2.0416   -0.0781 H   0  0  0  0  0  0  0  0  0  0  0  0
   -3.4431    3.4357    1.3472 H   0  0  0  0  0  0  0  0  0  0  0  0
   -4.5307    2.4648    3.3139 H   0  0  0  0  0  0  0  0  0  0  0  0
   -4.1840    0.1065    3.8431 H   0  0  0  0  0  0  0  0  0  0  0  0
   -2.7765   -1.3430    2.4706 H   0  0  0  0  0  0  0  0  0  0  0  0
   -2.0783    0.7537   -2.0884 H   0  0  0  0  0  0  0  0  0  0  0  0
   -3.4208   -0.1268   -3.9493 H   0  0  0  0  0  0  0  0  0  0  0  0
   -4.3350   -2.4573   -3.8060 H   0  0  0  0  0  0  0  0  0  0  0  0
   -3.9203   -3.8403   -1.8794 H   0  0  0  0  0  0  0  0  0  0  0  0
   -2.5924   -2.9745   -0.0315 H   0  0  0  0  0  0  0  0  0  0  0  0
    2.8386    3.2682   -1.7899 H   0  0  0  0  0  0  0  0  0  0  0  0
    6.6203    1.2377   -0.3229 H   0  0  0  0  0  0  0  0  0  0  0  0
    7.1462   -0.8490    0.9633 H   0  0  0  0  0  0  0  0  0  0  0  0
    5.3122   -2.3236    1.7268 H   0  0  0  0  0  0  0  0  0  0  0  0
    3.0470   -1.6937    1.1997 H   0  0  0  0  0  0  0  0  0  0  0  0
  1  2  2  0
  2  3  1  0
  3  4  1  0
  4  5  1  0
  5  6  2  0
  6  7  1  0
  7  8  2  0
  8  9  1  0
  9 10  2  0
  4 11  1  0
 11 12  2  0
 12 13  1  0
 13 14  2  0
 14 15  1  0
 15 16  2  0
  2 17  1  0
 17 18  2  0
 18 19  1  0
 19 20  1  0
 20 21  2  0
 20 22  1  0
 22 23  2  0
 23 24  1  0
 24 25  2  0
 25 26  1  0
 26 27  2  0
 10  5  1  0
 16 11  1  0
 27 17  1  0
 27 22  1  0
  3 28  1  0
  4 29  1  0
  6 30  1  0
  7 31  1  0
  8 32  1  0
  9 33  1  0
 10 34  1  0
 12 35  1  0
 13 36  1  0
 14 37  1  0
 15 38  1  0
 16 39  1  0
 19 40  1  0
 23 41  1  0
 24 42  1  0
 25 43  1  0
 26 44  1  0
M  END
$$$$
