
     RDKit          3D

 41 43  0  0  0  0  0  0  0  0999 V2000
    5.0894   -2.8034    0.2736 N   0  0  0  0  0  0  0  0  0  0  0  0
    4.0184   -2.1329   -0.3592 C   0  0  0  0  0  0  0  0  0  0  0  0
    3.3630   -2.7510   -1.2338 O   0  0  0  0  0  0  0  0  0  0  0  0
    3.6731   -0.7575   -0.0138 C   0  0  0  0  0  0  0  0  0  0  0  0
    4.3994   -0.0876    0.9481 C   0  0  0  0  0  0  0  0  0  0  0  0
    4.0507    1.2102    1.2536 C   0  0  0  0  0  0  0  0  0  0  0  0
    2.9817    1.8292    0.5982 C   0  0  0  0  0  0  0  0  0  0  0  0
    2.2450    1.1779   -0.3640 C   0  0  0  0  0  0  0  0  0  0  0  0
    1.1136    1.7487   -1.0956 C   0  0  0  0  0  0  0  0  0  0  0  0
   -0.1713    1.5246   -0.4883 N   0  0  0  0  0  0  0  0  0  0  0  0
   -0.9308    0.4971   -0.7253 N   0  0  0  0  0  0  0  0  0  0  0  0
   -2.1362    0.2496   -0.1787 C   0  0  0  0  0  0  0  0  0  0  0  0
   -2.8337   -0.9451   -0.5639 C   0  0  0  0  0  0  0  0  0  0  0  0
   -4.0698   -1.2649   -0.0473 C   0  0  0  0  0  0  0  0  0  0  0  0
   -4.7177   -2.4270   -0.4400 C   0  0  0  0  0  0  0  0  0  0  0  0
   -4.1415   -3.2753   -1.3462 C   0  0  0  0  0  0  0  0  0  0  0  0
   -2.9084   -2.9738   -1.8731 C   0  0  0  0  0  0  0  0  0  0  0  0
   -2.2759   -1.8308   -1.4841 C   0  0  0  0  0  0  0  0  0  0  0  0
   -2.6113    1.1660    0.7131 C   0  0  0  0  0  0  0  0  0  0  0  0
   -1.8354    2.2799    0.9980 C   0  0  0  0  0  0  0  0  0  0  0  0
   -2.3568    3.2648    1.9629 C   0  0  0  0  0  0  0  0  0  0  0  0
   -1.5043    3.4027    3.0593 F   0  0  0  0  0  0  0  0  0  0  0  0
   -3.6144    2.9093    2.4040 F   0  0  0  0  0  0  0  0  0  0  0  0
   -2.4912    4.4708    1.2972 F   0  0  0  0  0  0  0  0  0  0  0  0
   -0.6184    2.4429    0.3881 C   0  0  0  0  0  0  0  0  0  0  0  0
    0.0366    3.4780    0.6916 O   0  0  0  0  0  0  0  0  0  0  0  0
    2.6247   -0.1287   -0.6462 C   0  0  0  0  0  0  0  0  0  0  0  0
    4.9073   -3.7018    0.7499 H   0  0  0  0  0  0  0  0  0  0  0  0
    6.0329   -2.3837    0.2484 H   0  0  0  0  0  0  0  0  0  0  0  0
    5.2274   -0.5883    1.4457 H   0  0  0  0  0  0  0  0  0  0  0  0
    4.6066    1.7621    2.0084 H   0  0  0  0  0  0  0  0  0  0  0  0
    2.7019    2.8501    0.8325 H   0  0  0  0  0  0  0  0  0  0  0  0
    1.1434    1.3111   -2.1365 H   0  0  0  0  0  0  0  0  0  0  0  0
    1.2439    2.8446   -1.2079 H   0  0  0  0  0  0  0  0  0  0  0  0
   -4.5733   -0.6350    0.6703 H   0  0  0  0  0  0  0  0  0  0  0  0
   -5.6840   -2.6425   -0.0131 H   0  0  0  0  0  0  0  0  0  0  0  0
   -4.6683   -4.1956   -1.6490 H   0  0  0  0  0  0  0  0  0  0  0  0
   -2.4933   -3.6743   -2.5856 H   0  0  0  0  0  0  0  0  0  0  0  0
   -1.3164   -1.5794   -1.8830 H   0  0  0  0  0  0  0  0  0  0  0  0
   -3.5732    1.0292    1.1897 H   0  0  0  0  0  0  0  0  0  0  0  0
    2.0666   -0.6702   -1.3981 H   0  0  0  0  0  0  0  0  0  0  0  0
  1  2  1  0
  2  3  2  0
  2  4  1  0
  4  5  2  0
  5  6  1  0
  6  7  2  0
  7  8  1  0
  8  9  1  0
  9 10  1  0
 10 11  1  0
 11 12  2  0
 12 13  1  0
 13 14  2  0
 14 15  1  0
 15 16  2  0
 16 17  1  0
 17 18  2  0
 12 19  1  0
 19 20  2  0
 20 21  1  0
 21 22  1  0
 21 23  1  0
 21 24  1  0
 20 25  1  0
 25 26  2  0
  8 27  2  0
 27  4  1  0
 25 10  1  0
 18 13  1  0
  1 28  1  0
  1 29  1  0
  5 30  1  0
  6 31  1  0
  7 32  1  0
  9 33  1  0
  9 34  1  0
 14 35  1  0
 15 36  1  0
 16 37  1  0
 17 38  1  0
 18 39  1  0
 19 40  1  0
 27 41  1  0
M  END
$$$$
