
     RDKit          3D

 43 45  0  0  0  0  0  0  0  0999 V2000
    4.4559   -2.1242    0.5070 C   0  0  0  0  0  0  0  0  0  0  0  0
    2.9729   -2.2019    0.2933 C   0  0  0  0  0  0  0  0  0  0  0  0
    2.2342   -1.0473    0.9073 C   0  0  2  0  0  0  0  0  0  0  0  0
    0.7746   -1.1229    0.6974 C   0  0  0  0  0  0  0  0  0  0  0  0
   -0.0033   -1.2055    1.7075 O   0  0  0  0  0  0  0  0  0  0  0  0
    0.1355   -1.1124   -0.5601 N   0  0  0  0  0  0  0  0  0  0  0  0
   -1.2963   -1.1861   -0.7518 C   0  0  0  0  0  0  0  0  0  0  0  0
   -2.0230   -0.0997   -0.1279 C   0  0  0  0  0  0  0  0  0  0  0  0
   -1.3792    0.8576    0.5512 N   0  0  0  0  0  0  0  0  0  0  0  0
   -2.0610    1.8636    1.1279 N   0  0  0  0  0  0  0  0  0  0  0  0
   -3.3949    1.9707    1.0622 C   0  0  0  0  0  0  0  0  0  0  0  0
   -4.0335    2.9139    1.6030 O   0  0  0  0  0  0  0  0  0  0  0  0
   -4.1086    1.0193    0.3797 C   0  0  0  0  0  0  0  0  0  0  0  0
   -5.4831    1.0713    0.2745 C   0  0  0  0  0  0  0  0  0  0  0  0
   -6.1640    0.0945   -0.4209 C   0  0  0  0  0  0  0  0  0  0  0  0
   -5.4633   -0.9388   -1.0132 C   0  0  0  0  0  0  0  0  0  0  0  0
   -4.1008   -0.9596   -0.8892 C   0  0  0  0  0  0  0  0  0  0  0  0
   -3.3816   -0.0113   -0.2082 C   0  0  0  0  0  0  0  0  0  0  0  0
    2.7443    0.2336    0.3679 C   0  0  0  0  0  0  0  0  0  0  0  0
    2.9444    1.3166    1.2327 C   0  0  0  0  0  0  0  0  0  0  0  0
    3.4257    2.4995    0.7535 C   0  0  0  0  0  0  0  0  0  0  0  0
    3.7333    2.6836   -0.5819 C   0  0  0  0  0  0  0  0  0  0  0  0
    3.5474    1.6463   -1.4409 C   0  0  0  0  0  0  0  0  0  0  0  0
    3.0564    0.4366   -0.9560 C   0  0  0  0  0  0  0  0  0  0  0  0
    4.7113   -2.6552    1.4556 H   0  0  0  0  0  0  0  0  0  0  0  0
    4.8378   -1.0815    0.5097 H   0  0  0  0  0  0  0  0  0  0  0  0
    4.9647   -2.6832   -0.3024 H   0  0  0  0  0  0  0  0  0  0  0  0
    2.6334   -3.1685    0.7364 H   0  0  0  0  0  0  0  0  0  0  0  0
    2.8017   -2.2856   -0.7993 H   0  0  0  0  0  0  0  0  0  0  0  0
    2.4103   -1.0515    2.0129 H   0  0  0  0  0  0  0  0  0  0  0  0
    0.7249   -1.0510   -1.4010 H   0  0  0  0  0  0  0  0  0  0  0  0
   -1.4742   -1.0996   -1.8627 H   0  0  0  0  0  0  0  0  0  0  0  0
   -1.5729   -2.2041   -0.4210 H   0  0  0  0  0  0  0  0  0  0  0  0
   -1.5519    2.6093    1.6577 H   0  0  0  0  0  0  0  0  0  0  0  0
   -6.0445    1.8720    0.7317 H   0  0  0  0  0  0  0  0  0  0  0  0
   -7.2406    0.0879   -0.5336 H   0  0  0  0  0  0  0  0  0  0  0  0
   -5.9332   -1.7359   -1.5721 H   0  0  0  0  0  0  0  0  0  0  0  0
   -3.5433   -1.7619   -1.3477 H   0  0  0  0  0  0  0  0  0  0  0  0
    2.7225    1.2395    2.2966 H   0  0  0  0  0  0  0  0  0  0  0  0
    3.5777    3.3261    1.4177 H   0  0  0  0  0  0  0  0  0  0  0  0
    4.1179    3.6234   -0.9754 H   0  0  0  0  0  0  0  0  0  0  0  0
    3.7829    1.7646   -2.5038 H   0  0  0  0  0  0  0  0  0  0  0  0
    2.9435   -0.3423   -1.6952 H   0  0  0  0  0  0  0  0  0  0  0  0
  1  2  1  0
  2  3  1  0
  3  4  1  0
  4  5  2  0
  4  6  1  0
  6  7  1  0
  7  8  1  0
  8  9  2  0
  9 10  1  0
 10 11  1  0
 11 12  2  0
 11 13  1  0
 13 14  2  0
 14 15  1  0
 15 16  2  0
 16 17  1  0
 17 18  2  0
  3 19  1  0
 19 20  2  0
 20 21  1  0
 21 22  2  0
 22 23  1  0
 23 24  2  0
 18  8  1  0
 24 19  1  0
 18 13  1  0
  1 25  1  0
  1 26  1  0
  1 27  1  0
  2 28  1  0
  2 29  1  0
  3 30  1  1
  6 31  1  0
  7 32  1  0
  7 33  1  0
 10 34  1  0
 14 35  1  0
 15 36  1  0
 16 37  1  0
 17 38  1  0
 20 39  1  0
 21 40  1  0
 22 41  1  0
 23 42  1  0
 24 43  1  0
M  END
$$$$
