
     RDKit          3D

 37 39  0  0  0  0  0  0  0  0999 V2000
    0.4196   -0.7120    0.4879 O   0  0  0  0  0  0  0  0  0  0  0  0
    0.3532    0.5119    0.1770 C   0  0  0  0  0  0  0  0  0  0  0  0
   -0.9848    1.1369    0.1807 C   0  0  0  0  0  0  0  0  0  0  0  0
   -1.9782    0.0558    0.0829 C   0  0  0  0  0  0  0  0  0  0  0  0
   -1.5717   -1.2416   -0.0244 N   0  0  0  0  0  0  0  0  0  0  0  0
   -2.3904   -2.2575   -0.1769 N   0  0  0  0  0  0  0  0  0  0  0  0
   -3.7393   -2.0853   -0.2411 C   0  0  0  0  0  0  0  0  0  0  0  0
   -4.5056   -3.0920   -0.3978 O   0  0  0  0  0  0  0  0  0  0  0  0
   -4.2400   -0.8095   -0.1418 C   0  0  0  0  0  0  0  0  0  0  0  0
   -5.6218   -0.6222   -0.2307 C   0  0  0  0  0  0  0  0  0  0  0  0
   -6.0990    0.6749   -0.1572 C   0  0  0  0  0  0  0  0  0  0  0  0
   -5.2123    1.7194    0.0029 C   0  0  0  0  0  0  0  0  0  0  0  0
   -3.8508    1.4919    0.0888 C   0  0  0  0  0  0  0  0  0  0  0  0
   -3.3495    0.2317    0.0173 C   0  0  0  0  0  0  0  0  0  0  0  0
    1.5706    1.1897   -0.1632 N   0  0  0  0  0  0  0  0  0  0  0  0
    2.7620    0.4280   -0.1436 C   0  0  0  0  0  0  0  0  0  0  0  0
    2.7023   -0.9050   -0.4720 C   0  0  0  0  0  0  0  0  0  0  0  0
    3.8391   -1.7366   -0.4117 C   0  0  0  0  0  0  0  0  0  0  0  0
    5.0504   -1.1815   -0.0105 C   0  0  0  0  0  0  0  0  0  0  0  0
    5.1248    0.1593    0.3193 C   0  0  0  0  0  0  0  0  0  0  0  0
    6.4418    0.6843    0.7214 C   0  0  0  0  0  0  0  0  0  0  0  0
    6.4063    2.0585    0.9324 F   0  0  0  0  0  0  0  0  0  0  0  0
    6.8135    0.0783    1.9375 F   0  0  0  0  0  0  0  0  0  0  0  0
    7.4144    0.3825   -0.2049 F   0  0  0  0  0  0  0  0  0  0  0  0
    3.9968    0.9330    0.2502 C   0  0  0  0  0  0  0  0  0  0  0  0
   -1.0759    1.8063   -0.6570 H   0  0  0  0  0  0  0  0  0  0  0  0
   -1.0423    1.6644    1.1712 H   0  0  0  0  0  0  0  0  0  0  0  0
   -2.0033   -3.2239   -0.2668 H   0  0  0  0  0  0  0  0  0  0  0  0
   -6.3103   -1.4360   -0.3549 H   0  0  0  0  0  0  0  0  0  0  0  0
   -7.1682    0.8882   -0.2373 H   0  0  0  0  0  0  0  0  0  0  0  0
   -5.6440    2.7126    0.0552 H   0  0  0  0  0  0  0  0  0  0  0  0
   -3.1562    2.3079    0.2143 H   0  0  0  0  0  0  0  0  0  0  0  0
    1.5208    2.2247   -0.4253 H   0  0  0  0  0  0  0  0  0  0  0  0
    1.8058   -1.4038   -0.8286 H   0  0  0  0  0  0  0  0  0  0  0  0
    3.7499   -2.7757   -0.6702 H   0  0  0  0  0  0  0  0  0  0  0  0
    5.9085   -1.8401    0.0321 H   0  0  0  0  0  0  0  0  0  0  0  0
    4.0637    1.9825    0.5130 H   0  0  0  0  0  0  0  0  0  0  0  0
  1  2  2  0
  2  3  1  0
  3  4  1  0
  4  5  2  0
  5  6  1  0
  6  7  1  0
  7  8  2  0
  7  9  1  0
  9 10  2  0
 10 11  1  0
 11 12  2  0
 12 13  1  0
 13 14  2  0
  2 15  1  0
 15 16  1  0
 16 17  2  0
 17 18  1  0
 18 19  2  0
 19 20  1  0
 20 21  1  0
 21 22  1  0
 21 23  1  0
 21 24  1  0
 20 25  2  0
 14  4  1  0
 25 16  1  0
 14  9  1  0
  3 26  1  0
  3 27  1  0
  6 28  1  0
 10 29  1  0
 11 30  1  0
 12 31  1  0
 13 32  1  0
 15 33  1  0
 17 34  1  0
 18 35  1  0
 19 36  1  0
 25 37  1  0
M  END
$$$$
