
     RDKit          3D

 38 41  0  0  0  0  0  0  0  0999 V2000
   -1.2126   -0.5814    1.3557 N   0  0  0  0  0  0  0  0  0  0  0  0
   -2.5071   -0.1569    0.9355 C   0  0  0  0  0  0  0  0  0  0  0  0
   -3.5972   -0.8724    1.4738 C   0  0  0  0  0  0  0  0  0  0  0  0
   -4.8785   -0.5176    1.1362 C   0  0  0  0  0  0  0  0  0  0  0  0
   -5.0396    0.5374    0.2751 C   0  0  0  0  0  0  0  0  0  0  0  0
   -3.9829    1.2373   -0.2523 C   0  0  0  0  0  0  0  0  0  0  0  0
   -2.6648    0.8857    0.0832 C   0  0  0  0  0  0  0  0  0  0  0  0
   -1.5386    1.6306   -0.5087 C   0  0  0  0  0  0  0  0  0  0  0  0
   -0.9055    0.9616   -1.6850 C   0  0  0  0  0  0  0  0  0  0  0  0
   -0.2770   -0.3354   -1.4516 C   0  0  0  0  0  0  0  0  0  0  0  0
   -0.7443   -1.5766   -1.6646 N   0  0  0  0  0  0  0  0  0  0  0  0
    0.1478   -2.4561   -1.3019 N   0  0  0  0  0  0  0  0  0  0  0  0
    1.2611   -1.8632   -0.8268 C   0  0  0  0  0  0  0  0  0  0  0  0
    2.4670   -2.3052   -0.3300 C   0  0  0  0  0  0  0  0  0  0  0  0
    3.4048   -1.3669    0.0718 C   0  0  0  0  0  0  0  0  0  0  0  0
    3.1889   -0.0231   -0.0018 C   0  0  0  0  0  0  0  0  0  0  0  0
    4.1706    0.9762    0.4073 C   0  0  0  0  0  0  0  0  0  0  0  0
    4.0604    2.3156    0.3703 N   0  0  0  0  0  0  0  0  0  0  0  0
    5.1993    2.8205    0.8345 N   0  0  0  0  0  0  0  0  0  0  0  0
    6.0135    1.8351    1.1588 N   0  0  0  0  0  0  0  0  0  0  0  0
    5.3956    0.7192    0.9023 N   0  0  0  0  0  0  0  0  0  0  0  0
    1.9674    0.3935   -0.5048 C   0  0  0  0  0  0  0  0  0  0  0  0
    1.0029   -0.5000   -0.9172 C   0  0  0  0  0  0  0  0  0  0  0  0
   -1.0203   -1.5986    1.4126 H   0  0  0  0  0  0  0  0  0  0  0  0
   -0.4967    0.0970    1.5947 H   0  0  0  0  0  0  0  0  0  0  0  0
   -3.4033   -1.6981    2.1514 H   0  0  0  0  0  0  0  0  0  0  0  0
   -5.7375   -1.0579    1.5405 H   0  0  0  0  0  0  0  0  0  0  0  0
   -6.0724    0.8003    0.0244 H   0  0  0  0  0  0  0  0  0  0  0  0
   -4.1217    2.0748   -0.9375 H   0  0  0  0  0  0  0  0  0  0  0  0
   -1.9396    2.6058   -0.8836 H   0  0  0  0  0  0  0  0  0  0  0  0
   -0.7981    1.8930    0.2873 H   0  0  0  0  0  0  0  0  0  0  0  0
   -1.7307    0.8524   -2.4546 H   0  0  0  0  0  0  0  0  0  0  0  0
   -0.1620    1.6482   -2.1879 H   0  0  0  0  0  0  0  0  0  0  0  0
    0.0214   -3.4996   -1.3689 H   0  0  0  0  0  0  0  0  0  0  0  0
    2.6293   -3.3684   -0.2753 H   0  0  0  0  0  0  0  0  0  0  0  0
    4.3547   -1.6968    0.4638 H   0  0  0  0  0  0  0  0  0  0  0  0
    5.7516   -0.2730    1.0412 H   0  0  0  0  0  0  0  0  0  0  0  0
    1.7938    1.4629   -0.5635 H   0  0  0  0  0  0  0  0  0  0  0  0
  1  2  1  0
  2  3  2  0
  3  4  1  0
  4  5  2  0
  5  6  1  0
  6  7  2  0
  7  8  1  0
  8  9  1  0
  9 10  1  0
 10 11  2  0
 11 12  1  0
 12 13  1  0
 13 14  2  0
 14 15  1  0
 15 16  2  0
 16 17  1  0
 17 18  2  0
 18 19  1  0
 19 20  2  0
 20 21  1  0
 16 22  1  0
 22 23  2  0
  7  2  1  0
 23 10  1  0
 23 13  1  0
 21 17  1  0
  1 24  1  0
  1 25  1  0
  3 26  1  0
  4 27  1  0
  5 28  1  0
  6 29  1  0
  8 30  1  0
  8 31  1  0
  9 32  1  0
  9 33  1  0
 12 34  1  0
 14 35  1  0
 15 36  1  0
 21 37  1  0
 22 38  1  0
M  END
$$$$
