
     RDKit          3D

 40 43  0  0  0  0  0  0  0  0999 V2000
    4.5782   -2.5652    1.5332 N   0  0  0  0  0  2  0  0  0  0  0  0
    4.8481   -1.6355    0.7859 N   0  0  0  0  0  4  0  0  0  0  0  0
    4.9958   -1.0334   -0.2992 N   0  0  0  0  0  0  0  0  0  0  0  0
    3.8861   -0.5573   -1.0755 C   0  0  0  0  0  0  0  0  0  0  0  0
    2.5557   -0.8183   -0.4296 C   0  0  1  0  0  0  0  0  0  0  0  0
    2.5043   -0.1888    0.7949 O   0  0  0  0  0  0  0  0  0  0  0  0
    1.4825   -0.2182   -1.3321 C   0  0  0  0  0  0  0  0  0  0  0  0
    0.1587   -0.3656   -0.8558 N   0  0  0  0  0  0  0  0  0  0  0  0
   -0.5045    0.5110   -0.1061 C   0  0  0  0  0  0  0  0  0  0  0  0
   -1.8112    0.2635    0.3268 C   0  0  0  0  0  0  0  0  0  0  0  0
   -2.4319   -0.9192   -0.0304 C   0  0  0  0  0  0  0  0  0  0  0  0
   -3.7261   -1.2104    0.3744 C   0  0  0  0  0  0  0  0  0  0  0  0
   -4.3045   -2.4023   -0.0059 C   0  0  0  0  0  0  0  0  0  0  0  0
   -3.6174   -3.3104   -0.7825 C   0  0  0  0  0  0  0  0  0  0  0  0
   -2.3310   -3.0279   -1.1885 C   0  0  0  0  0  0  0  0  0  0  0  0
   -1.7516   -1.8288   -0.8048 C   0  0  0  0  0  0  0  0  0  0  0  0
   -0.4791   -1.5273   -1.1948 C   0  0  0  0  0  0  0  0  0  0  0  0
    0.1142   -2.3889   -1.9061 O   0  0  0  0  0  0  0  0  0  0  0  0
   -2.3087    1.3725    1.1209 C   0  0  0  0  0  0  0  0  0  0  0  0
   -3.4191    1.5329    1.6828 O   0  0  0  0  0  0  0  0  0  0  0  0
   -1.2138    2.3258    1.1482 C   0  0  0  0  0  0  0  0  0  0  0  0
   -1.1209    3.5796    1.7619 C   0  0  0  0  0  0  0  0  0  0  0  0
    0.0340    4.3158    1.6484 C   0  0  0  0  0  0  0  0  0  0  0  0
    1.1100    3.8395    0.9370 C   0  0  0  0  0  0  0  0  0  0  0  0
    1.0264    2.5844    0.3188 C   0  0  0  0  0  0  0  0  0  0  0  0
   -0.1191    1.8374    0.4220 C   0  0  0  0  0  0  0  0  0  0  0  0
    3.8762   -0.9774   -2.1132 H   0  0  0  0  0  0  0  0  0  0  0  0
    3.9845    0.5566   -1.1740 H   0  0  0  0  0  0  0  0  0  0  0  0
    2.3819   -1.9202   -0.3082 H   0  0  0  0  0  0  0  0  0  0  0  0
    1.6508   -0.3895    1.2651 H   0  0  0  0  0  0  0  0  0  0  0  0
    1.8157    0.7435   -1.6910 H   0  0  0  0  0  0  0  0  0  0  0  0
    1.5526   -0.8943   -2.2821 H   0  0  0  0  0  0  0  0  0  0  0  0
   -4.2570   -0.4864    0.9863 H   0  0  0  0  0  0  0  0  0  0  0  0
   -5.3143   -2.6206    0.3147 H   0  0  0  0  0  0  0  0  0  0  0  0
   -4.0936   -4.2402   -1.0683 H   0  0  0  0  0  0  0  0  0  0  0  0
   -1.7778   -3.7490   -1.8084 H   0  0  0  0  0  0  0  0  0  0  0  0
   -1.9737    3.9404    2.3172 H   0  0  0  0  0  0  0  0  0  0  0  0
    0.1002    5.2805    2.1226 H   0  0  0  0  0  0  0  0  0  0  0  0
    2.0331    4.3681    0.8152 H   0  0  0  0  0  0  0  0  0  0  0  0
    1.8664    2.2233   -0.2199 H   0  0  0  0  0  0  0  0  0  0  0  0
  1  2  2  0
  2  3  2  0
  3  4  1  0
  4  5  1  0
  5  6  1  0
  5  7  1  0
  7  8  1  0
  8  9  1  0
  9 10  2  0
 10 11  1  0
 11 12  2  0
 12 13  1  0
 13 14  2  0
 14 15  1  0
 15 16  2  0
 16 17  1  0
 17 18  2  0
 10 19  1  0
 19 20  2  0
 19 21  1  0
 21 22  2  0
 22 23  1  0
 23 24  2  0
 24 25  1  0
 25 26  2  0
 17  8  1  0
 26 21  1  0
 26  9  1  0
 16 11  1  0
  4 27  1  0
  4 28  1  0
  5 29  1  1
  6 30  1  0
  7 31  1  0
  7 32  1  0
 12 33  1  0
 13 34  1  0
 14 35  1  0
 15 36  1  0
 22 37  1  0
 23 38  1  0
 24 39  1  0
 25 40  1  0
M  CHG  2   1  -1   2   1
M  END
$$$$
